data_image0
_cell_length_a       11.414
_cell_length_b       11.572
_cell_length_c       20.301
_cell_angle_alpha    98.89
_cell_angle_beta     90
_cell_angle_gamma    90

_symmetry_space_group_name_H-M    "P 1"
_symmetry_int_tables_number       1

loop_
  _symmetry_equiv_pos_as_xyz
  'x, y, z'

loop_
  _atom_site_label
  _atom_site_occupancy
  _atom_site_fract_x
  _atom_site_fract_y
  _atom_site_fract_z
  _atom_site_thermal_displace_type
  _atom_site_B_iso_or_equiv
  _atom_site_type_symbol
  H1       1.0000 0.07033  0.62410  0.59590  Biso   1.000  H
  H2       1.0000 0.92967  0.37590  0.40410  Biso   1.000  H
  H3       1.0000 0.57033  0.87590  0.40410  Biso   1.000  H
  H4       1.0000 0.42967  0.12410  0.59590  Biso   1.000  H
  H5       1.0000 0.06489  0.58553  0.47313  Biso   1.000  H
  H6       1.0000 0.93511  0.41447  0.52687  Biso   1.000  H
  H7       1.0000 0.56489  0.91447  0.52687  Biso   1.000  H
  H8       1.0000 0.43511  0.08553  0.47313  Biso   1.000  H
  H9       1.0000 0.95939  0.71927  0.41089  Biso   1.000  H
  H10      1.0000 0.04061  0.28073  0.58911  Biso   1.000  H
  H11      1.0000 0.45939  0.78073  0.58911  Biso   1.000  H
  H12      1.0000 0.54061  0.21927  0.41089  Biso   1.000  H
  H13      1.0000 0.84697  0.88965  0.40761  Biso   1.000  H
  H14      1.0000 0.15303  0.11035  0.59239  Biso   1.000  H
  H15      1.0000 0.34697  0.61035  0.59239  Biso   1.000  H
  H16      1.0000 0.65303  0.38965  0.40761  Biso   1.000  H
  H17      1.0000 0.74488  0.06642  0.46460  Biso   1.000  H
  H18      1.0000 0.25512  0.93358  0.53540  Biso   1.000  H
  H19      1.0000 0.24488  0.43358  0.53540  Biso   1.000  H
  H20      1.0000 0.75512  0.56642  0.46460  Biso   1.000  H
  H21      1.0000 0.73021  0.09936  0.58648  Biso   1.000  H
  H22      1.0000 0.26979  0.90064  0.41352  Biso   1.000  H
  H23      1.0000 0.23021  0.40064  0.41352  Biso   1.000  H
  H24      1.0000 0.76979  0.59936  0.58648  Biso   1.000  H
  H25      1.0000 0.82114  0.70432  0.69867  Biso   1.000  H
  H26      1.0000 0.17886  0.29568  0.30133  Biso   1.000  H
  H27      1.0000 0.32114  0.79568  0.30133  Biso   1.000  H
  H28      1.0000 0.67886  0.20432  0.69867  Biso   1.000  H
  H29      1.0000 0.83593  0.75056  0.82029  Biso   1.000  H
  H30      1.0000 0.16407  0.24944  0.17971  Biso   1.000  H
  H31      1.0000 0.33593  0.74944  0.17971  Biso   1.000  H
  H32      1.0000 0.66407  0.25056  0.82029  Biso   1.000  H
  H33      1.0000 0.93247  0.85408  0.92047  Biso   1.000  H
  H34      1.0000 0.06753  0.14592  0.07953  Biso   1.000  H
  H35      1.0000 0.43247  0.64592  0.07953  Biso   1.000  H
  H36      1.0000 0.56753  0.35408  0.92047  Biso   1.000  H
  H37      1.0000 0.09444  0.97609  0.97181  Biso   1.000  H
  H38      1.0000 0.90556  0.02391  0.02819  Biso   1.000  H
  H39      1.0000 0.59444  0.52391  0.02819  Biso   1.000  H
  H40      1.0000 0.40556  0.47609  0.97181  Biso   1.000  H
  H41      1.0000 0.27751  0.08332  0.96046  Biso   1.000  H
  H42      1.0000 0.72249  0.91668  0.03954  Biso   1.000  H
  H43      1.0000 0.77751  0.41668  0.03954  Biso   1.000  H
  H44      1.0000 0.22249  0.58332  0.96046  Biso   1.000  H
  H45      1.0000 0.43194  0.14829  0.88913  Biso   1.000  H
  H46      1.0000 0.56806  0.85171  0.11087  Biso   1.000  H
  H47      1.0000 0.93194  0.35171  0.11087  Biso   1.000  H
  H48      1.0000 0.06806  0.64829  0.88913  Biso   1.000  H
  H49      1.0000 0.42643  0.09189  0.76777  Biso   1.000  H
  H50      1.0000 0.57357  0.90811  0.23223  Biso   1.000  H
  H51      1.0000 0.92643  0.40811  0.23223  Biso   1.000  H
  H52      1.0000 0.07357  0.59189  0.76777  Biso   1.000  H
  H53      1.0000 0.33097  0.98364  0.66705  Biso   1.000  H
  H54      1.0000 0.66903  0.01636  0.33295  Biso   1.000  H
  H55      1.0000 0.83097  0.51636  0.33295  Biso   1.000  H
  H56      1.0000 0.16903  0.48364  0.66705  Biso   1.000  H
  H57      1.0000 0.16609  0.86819  0.61533  Biso   1.000  H
  H58      1.0000 0.83391  0.13181  0.38467  Biso   1.000  H
  H59      1.0000 0.66609  0.63181  0.38467  Biso   1.000  H
  H60      1.0000 0.33391  0.36819  0.61533  Biso   1.000  H
  H61      1.0000 0.64612  0.86642  0.65758  Biso   1.000  H
  H62      1.0000 0.35388  0.13358  0.34242  Biso   1.000  H
  H63      1.0000 0.14612  0.63358  0.34242  Biso   1.000  H
  H64      1.0000 0.85388  0.36642  0.65758  Biso   1.000  H
  H65      1.0000 0.58208  0.90410  0.77471  Biso   1.000  H
  H66      1.0000 0.41792  0.09590  0.22529  Biso   1.000  H
  H67      1.0000 0.08208  0.59590  0.22529  Biso   1.000  H
  H68      1.0000 0.91792  0.40410  0.77471  Biso   1.000  H
  H69      1.0000 0.61652  0.99312  0.89167  Biso   1.000  H
  H70      1.0000 0.38348  0.00688  0.10833  Biso   1.000  H
  H71      1.0000 0.11652  0.50688  0.10833  Biso   1.000  H
  H72      1.0000 0.88348  0.49312  0.89167  Biso   1.000  H
  H73      1.0000 0.73225  0.12408  0.97380  Biso   1.000  H
  H74      1.0000 0.26775  0.87592  0.02620  Biso   1.000  H
  H75      1.0000 0.23225  0.37592  0.02620  Biso   1.000  H
  H76      1.0000 0.76775  0.62408  0.97380  Biso   1.000  H
  H77      1.0000 0.90047  0.25523  0.00078  Biso   1.000  H
  H78      1.0000 0.09953  0.74477  0.99922  Biso   1.000  H
  H79      1.0000 0.40047  0.24477  0.99922  Biso   1.000  H
  H80      1.0000 0.59953  0.75523  0.00078  Biso   1.000  H
  H81      1.0000 0.07675  0.35172  0.96506  Biso   1.000  H
  H82      1.0000 0.92325  0.64828  0.03494  Biso   1.000  H
  H83      1.0000 0.57675  0.14828  0.03494  Biso   1.000  H
  H84      1.0000 0.42325  0.85172  0.96506  Biso   1.000  H
  H85      1.0000 0.14063  0.31623  0.84819  Biso   1.000  H
  H86      1.0000 0.85937  0.68377  0.15181  Biso   1.000  H
  H87      1.0000 0.64063  0.18377  0.15181  Biso   1.000  H
  H88      1.0000 0.35937  0.81623  0.84819  Biso   1.000  H
  H89      1.0000 0.10820  0.22365  0.73183  Biso   1.000  H
  H90      1.0000 0.89180  0.77635  0.26817  Biso   1.000  H
  H91      1.0000 0.60820  0.27635  0.26817  Biso   1.000  H
  H92      1.0000 0.39180  0.72365  0.73183  Biso   1.000  H
  H93      1.0000 0.99254  0.09442  0.64906  Biso   1.000  H
  H94      1.0000 0.00746  0.90558  0.35094  Biso   1.000  H
  H95      1.0000 0.49254  0.40558  0.35094  Biso   1.000  H
  H96      1.0000 0.50746  0.59442  0.64906  Biso   1.000  H
  C1       1.0000 0.96200  0.77480  0.60518  Biso   1.000  C
  C2       1.0000 0.03800  0.22520  0.39482  Biso   1.000  C
  C3       1.0000 0.46200  0.72520  0.39482  Biso   1.000  C
  C4       1.0000 0.53800  0.27480  0.60518  Biso   1.000  C
  C5       1.0000 0.01940  0.68190  0.56929  Biso   1.000  C
  C6       1.0000 0.98060  0.31810  0.43071  Biso   1.000  C
  C7       1.0000 0.51940  0.81810  0.43071  Biso   1.000  C
  C8       1.0000 0.48060  0.18190  0.56929  Biso   1.000  C
  C9       1.0000 0.01720  0.66050  0.49915  Biso   1.000  C
  C10      1.0000 0.98280  0.33950  0.50085  Biso   1.000  C
  C11      1.0000 0.51720  0.83950  0.50085  Biso   1.000  C
  C12      1.0000 0.48280  0.16050  0.49915  Biso   1.000  C
  C13      1.0000 0.96000  0.73330  0.46535  Biso   1.000  C
  C14      1.0000 0.04000  0.26670  0.53465  Biso   1.000  C
  C15      1.0000 0.46000  0.76670  0.53465  Biso   1.000  C
  C16      1.0000 0.54000  0.23330  0.46535  Biso   1.000  C
  C17      1.0000 0.89960  0.83140  0.49889  Biso   1.000  C
  C18      1.0000 0.10040  0.16860  0.50111  Biso   1.000  C
  C19      1.0000 0.39960  0.66860  0.50111  Biso   1.000  C
  C20      1.0000 0.60040  0.33140  0.49889  Biso   1.000  C
  C21      1.0000 0.84400  0.90950  0.46190  Biso   1.000  C
  C22      1.0000 0.15600  0.09050  0.53810  Biso   1.000  C
  C23      1.0000 0.34400  0.59050  0.53810  Biso   1.000  C
  C24      1.0000 0.65600  0.40950  0.46190  Biso   1.000  C
  C25      1.0000 0.78790  0.00530  0.49246  Biso   1.000  C
  C26      1.0000 0.21210  0.99470  0.50754  Biso   1.000  C
  C27      1.0000 0.28790  0.49470  0.50754  Biso   1.000  C
  C28      1.0000 0.71210  0.50530  0.49246  Biso   1.000  C
  C29      1.0000 0.78050  0.02450  0.56235  Biso   1.000  C
  C30      1.0000 0.21950  0.97550  0.43765  Biso   1.000  C
  C31      1.0000 0.28050  0.47550  0.43765  Biso   1.000  C
  C32      1.0000 0.71950  0.52450  0.56235  Biso   1.000  C
  C33      1.0000 0.82960  0.95110  0.60099  Biso   1.000  C
  C34      1.0000 0.17040  0.04890  0.39901  Biso   1.000  C
  C35      1.0000 0.32960  0.54890  0.39901  Biso   1.000  C
  C36      1.0000 0.67040  0.45110  0.60099  Biso   1.000  C
  C37      1.0000 0.89700  0.85270  0.57021  Biso   1.000  C
  C38      1.0000 0.10300  0.14730  0.42979  Biso   1.000  C
  C39      1.0000 0.39700  0.64730  0.42979  Biso   1.000  C
  C40      1.0000 0.60300  0.35270  0.57021  Biso   1.000  C
  C41      1.0000 0.97800  0.79470  0.67921  Biso   1.000  C
  C42      1.0000 0.02200  0.20530  0.32079  Biso   1.000  C
  C43      1.0000 0.47800  0.70530  0.32079  Biso   1.000  C
  C44      1.0000 0.52200  0.29470  0.67921  Biso   1.000  C
  C45      1.0000 0.89600  0.75420  0.72078  Biso   1.000  C
  C46      1.0000 0.10400  0.24580  0.27922  Biso   1.000  C
  C47      1.0000 0.39600  0.74580  0.27922  Biso   1.000  C
  C48      1.0000 0.60400  0.25420  0.72078  Biso   1.000  C
  C49      1.0000 0.90390  0.78000  0.78921  Biso   1.000  C
  C50      1.0000 0.09610  0.22000  0.21079  Biso   1.000  C
  C51      1.0000 0.40390  0.72000  0.21079  Biso   1.000  C
  C52      1.0000 0.59610  0.28000  0.78921  Biso   1.000  C
  C53      1.0000 0.99550  0.84760  0.81947  Biso   1.000  C
  C54      1.0000 0.00450  0.15240  0.18053  Biso   1.000  C
  C55      1.0000 0.49550  0.65240  0.18053  Biso   1.000  C
  C56      1.0000 0.50450  0.34760  0.81947  Biso   1.000  C
  C57      1.0000 0.08450  0.88410  0.77858  Biso   1.000  C
  C58      1.0000 0.91550  0.11590  0.22142  Biso   1.000  C
  C59      1.0000 0.58450  0.61590  0.22142  Biso   1.000  C
  C60      1.0000 0.41550  0.38410  0.77858  Biso   1.000  C
  C61      1.0000 0.00240  0.88220  0.88982  Biso   1.000  C
  C62      1.0000 0.99760  0.11780  0.11018  Biso   1.000  C
  C63      1.0000 0.50240  0.61780  0.11018  Biso   1.000  C
  C64      1.0000 0.49760  0.38220  0.88982  Biso   1.000  C
  C65      1.0000 0.09110  0.94900  0.91797  Biso   1.000  C
  C66      1.0000 0.90890  0.05100  0.08203  Biso   1.000  C
  C67      1.0000 0.59110  0.55100  0.08203  Biso   1.000  C
  C68      1.0000 0.40890  0.44900  0.91797  Biso   1.000  C
  C69      1.0000 0.18270  0.98710  0.87846  Biso   1.000  C
  C70      1.0000 0.81730  0.01290  0.12154  Biso   1.000  C
  C71      1.0000 0.68270  0.51290  0.12154  Biso   1.000  C
  C72      1.0000 0.31730  0.48710  0.87846  Biso   1.000  C
  C73      1.0000 0.17890  0.95340  0.80855  Biso   1.000  C
  C74      1.0000 0.82110  0.04660  0.19145  Biso   1.000  C
  C75      1.0000 0.67890  0.54660  0.19145  Biso   1.000  C
  C76      1.0000 0.32110  0.45340  0.80855  Biso   1.000  C
  C77      1.0000 0.27500  0.05720  0.90647  Biso   1.000  C
  C78      1.0000 0.72500  0.94280  0.09353  Biso   1.000  C
  C79      1.0000 0.77500  0.44280  0.09353  Biso   1.000  C
  C80      1.0000 0.22500  0.55720  0.90647  Biso   1.000  C
  C81      1.0000 0.36060  0.09320  0.86668  Biso   1.000  C
  C82      1.0000 0.63940  0.90680  0.13332  Biso   1.000  C
  C83      1.0000 0.86060  0.40680  0.13332  Biso   1.000  C
  C84      1.0000 0.13940  0.59320  0.86668  Biso   1.000  C
  C85      1.0000 0.35800  0.06180  0.79853  Biso   1.000  C
  C86      1.0000 0.64200  0.93820  0.20147  Biso   1.000  C
  C87      1.0000 0.85800  0.43820  0.20147  Biso   1.000  C
  C88      1.0000 0.14200  0.56180  0.79853  Biso   1.000  C
  C89      1.0000 0.26790  0.99140  0.76825  Biso   1.000  C
  C90      1.0000 0.73210  0.00860  0.23175  Biso   1.000  C
  C91      1.0000 0.76790  0.50860  0.23175  Biso   1.000  C
  C92      1.0000 0.23210  0.49140  0.76825  Biso   1.000  C
  C93      1.0000 0.26070  0.95640  0.69781  Biso   1.000  C
  C94      1.0000 0.73930  0.04360  0.30219  Biso   1.000  C
  C95      1.0000 0.76070  0.54360  0.30219  Biso   1.000  C
  C96      1.0000 0.23930  0.45640  0.69781  Biso   1.000  C
  C97      1.0000 0.17010  0.89280  0.66922  Biso   1.000  C
  C98      1.0000 0.82990  0.10720  0.33078  Biso   1.000  C
  C99      1.0000 0.67010  0.60720  0.33078  Biso   1.000  C
  C100     1.0000 0.32990  0.39280  0.66922  Biso   1.000  C
  C101     1.0000 0.07670  0.85560  0.70799  Biso   1.000  C
  C102     1.0000 0.92330  0.14440  0.29201  Biso   1.000  C
  C103     1.0000 0.57670  0.64440  0.29201  Biso   1.000  C
  C104     1.0000 0.42330  0.35560  0.70799  Biso   1.000  C
  C105     1.0000 0.79860  0.97490  0.67356  Biso   1.000  C
  C106     1.0000 0.20140  0.02510  0.32644  Biso   1.000  C
  C107     1.0000 0.29860  0.52510  0.32644  Biso   1.000  C
  C108     1.0000 0.70140  0.47490  0.67356  Biso   1.000  C
  C109     1.0000 0.69690  0.92510  0.69403  Biso   1.000  C
  C110     1.0000 0.30310  0.07490  0.30597  Biso   1.000  C
  C111     1.0000 0.19690  0.57490  0.30597  Biso   1.000  C
  C112     1.0000 0.80310  0.42510  0.69403  Biso   1.000  C
  C113     1.0000 0.66120  0.94570  0.75968  Biso   1.000  C
  C114     1.0000 0.33880  0.05430  0.24032  Biso   1.000  C
  C115     1.0000 0.16120  0.55430  0.24032  Biso   1.000  C
  C116     1.0000 0.83880  0.44570  0.75968  Biso   1.000  C
  C117     1.0000 0.72610  0.01660  0.80741  Biso   1.000  C
  C118     1.0000 0.27390  0.98340  0.19259  Biso   1.000  C
  C119     1.0000 0.22610  0.48340  0.19259  Biso   1.000  C
  C120     1.0000 0.77390  0.51660  0.80741  Biso   1.000  C
  C121     1.0000 0.82800  0.07220  0.78726  Biso   1.000  C
  C122     1.0000 0.17200  0.92780  0.21274  Biso   1.000  C
  C123     1.0000 0.32800  0.42780  0.21274  Biso   1.000  C
  C124     1.0000 0.67200  0.57220  0.78726  Biso   1.000  C
  C125     1.0000 0.69410  0.03750  0.87657  Biso   1.000  C
  C126     1.0000 0.30590  0.96250  0.12343  Biso   1.000  C
  C127     1.0000 0.19410  0.46250  0.12343  Biso   1.000  C
  C128     1.0000 0.80590  0.53750  0.87657  Biso   1.000  C
  C129     1.0000 0.75740  0.10880  0.92133  Biso   1.000  C
  C130     1.0000 0.24260  0.89120  0.07867  Biso   1.000  C
  C131     1.0000 0.25740  0.39120  0.07867  Biso   1.000  C
  C132     1.0000 0.74260  0.60880  0.92133  Biso   1.000  C
  C133     1.0000 0.85950  0.16680  0.90258  Biso   1.000  C
  C134     1.0000 0.14050  0.83320  0.09742  Biso   1.000  C
  C135     1.0000 0.35950  0.33320  0.09742  Biso   1.000  C
  C136     1.0000 0.64050  0.66680  0.90258  Biso   1.000  C
  C137     1.0000 0.89480  0.14710  0.83514  Biso   1.000  C
  C138     1.0000 0.10520  0.85290  0.16486  Biso   1.000  C
  C139     1.0000 0.39480  0.35290  0.16486  Biso   1.000  C
  C140     1.0000 0.60520  0.64710  0.83514  Biso   1.000  C
  C141     1.0000 0.92690  0.24110  0.94860  Biso   1.000  C
  C142     1.0000 0.07310  0.75890  0.05140  Biso   1.000  C
  C143     1.0000 0.42690  0.25890  0.05140  Biso   1.000  C
  C144     1.0000 0.57310  0.74110  0.94860  Biso   1.000  C
  C145     1.0000 0.02570  0.29360  0.92847  Biso   1.000  C
  C146     1.0000 0.97430  0.70640  0.07153  Biso   1.000  C
  C147     1.0000 0.52570  0.20640  0.07153  Biso   1.000  C
  C148     1.0000 0.47430  0.79360  0.92847  Biso   1.000  C
  C149     1.0000 0.06130  0.27500  0.86323  Biso   1.000  C
  C150     1.0000 0.93870  0.72500  0.13677  Biso   1.000  C
  C151     1.0000 0.56130  0.22500  0.13677  Biso   1.000  C
  C152     1.0000 0.43870  0.77500  0.86323  Biso   1.000  C
  C153     1.0000 0.99690  0.20190  0.81520  Biso   1.000  C
  C154     1.0000 0.00310  0.79810  0.18480  Biso   1.000  C
  C155     1.0000 0.49690  0.29810  0.18480  Biso   1.000  C
  C156     1.0000 0.50310  0.70190  0.81520  Biso   1.000  C
  C157     1.0000 0.02920  0.18100  0.74665  Biso   1.000  C
  C158     1.0000 0.97080  0.81900  0.25335  Biso   1.000  C
  C159     1.0000 0.52920  0.31900  0.25335  Biso   1.000  C
  C160     1.0000 0.47080  0.68100  0.74665  Biso   1.000  C
  C161     1.0000 0.96620  0.11020  0.70120  Biso   1.000  C
  C162     1.0000 0.03380  0.88980  0.29880  Biso   1.000  C
  C163     1.0000 0.46620  0.38980  0.29880  Biso   1.000  C
  C164     1.0000 0.53380  0.61020  0.70120  Biso   1.000  C
  C165     1.0000 0.86320  0.05190  0.71963  Biso   1.000  C
  C166     1.0000 0.13680  0.94810  0.28037  Biso   1.000  C
  C167     1.0000 0.36320  0.44810  0.28037  Biso   1.000  C
  C168     1.0000 0.63680  0.55190  0.71963  Biso   1.000  C
