data_image0
_cell_length_a       5.547
_cell_length_b       8.034
_cell_length_c       30.1628
_cell_angle_alpha    94.6615
_cell_angle_beta     90
_cell_angle_gamma    90

_symmetry_space_group_name_H-M    "P 1"
_symmetry_int_tables_number       1

loop_
  _symmetry_equiv_pos_as_xyz
  'x, y, z'

loop_
  _atom_site_label
  _atom_site_occupancy
  _atom_site_fract_x
  _atom_site_fract_y
  _atom_site_fract_z
  _atom_site_thermal_displace_type
  _atom_site_B_iso_or_equiv
  _atom_site_type_symbol
  H1       1.0000 0.82653  0.07497  0.45098  Biso   1.000  H
  H2       1.0000 0.17347  0.92503  0.54902  Biso   1.000  H
  H3       1.0000 0.32653  0.42503  0.54902  Biso   1.000  H
  H4       1.0000 0.67347  0.57497  0.45098  Biso   1.000  H
  H5       1.0000 0.17175  0.81431  0.47353  Biso   1.000  H
  H6       1.0000 0.82825  0.18569  0.52647  Biso   1.000  H
  H7       1.0000 0.67175  0.68569  0.52647  Biso   1.000  H
  H8       1.0000 0.32825  0.31431  0.47353  Biso   1.000  H
  H9       1.0000 0.82465  0.98627  0.38941  Biso   1.000  H
  H10      1.0000 0.17535  0.01373  0.61059  Biso   1.000  H
  H11      1.0000 0.32465  0.51373  0.61059  Biso   1.000  H
  H12      1.0000 0.67535  0.48627  0.38941  Biso   1.000  H
  H13      1.0000 0.82772  0.87355  0.31386  Biso   1.000  H
  H14      1.0000 0.17228  0.12645  0.68614  Biso   1.000  H
  H15      1.0000 0.32772  0.62645  0.68614  Biso   1.000  H
  H16      1.0000 0.67228  0.37355  0.31386  Biso   1.000  H
  H17      1.0000 0.17380  0.61171  0.33629  Biso   1.000  H
  H18      1.0000 0.82620  0.38829  0.66371  Biso   1.000  H
  H19      1.0000 0.67380  0.88829  0.66371  Biso   1.000  H
  H20      1.0000 0.32620  0.11171  0.33629  Biso   1.000  H
  H21      1.0000 0.17380  0.72147  0.41185  Biso   1.000  H
  H22      1.0000 0.82620  0.27853  0.58815  Biso   1.000  H
  H23      1.0000 0.67380  0.77853  0.58815  Biso   1.000  H
  H24      1.0000 0.32620  0.22147  0.41185  Biso   1.000  H
  H25      1.0000 0.82510  0.78312  0.25215  Biso   1.000  H
  H26      1.0000 0.17490  0.21688  0.74785  Biso   1.000  H
  H27      1.0000 0.32510  0.71688  0.74785  Biso   1.000  H
  H28      1.0000 0.67490  0.28312  0.25215  Biso   1.000  H
  H29      1.0000 0.82603  0.67285  0.17693  Biso   1.000  H
  H30      1.0000 0.17397  0.32715  0.82307  Biso   1.000  H
  H31      1.0000 0.32603  0.82715  0.82307  Biso   1.000  H
  H32      1.0000 0.67397  0.17285  0.17693  Biso   1.000  H
  H33      1.0000 0.17405  0.41180  0.19918  Biso   1.000  H
  H34      1.0000 0.82595  0.58820  0.80082  Biso   1.000  H
  H35      1.0000 0.67405  0.08820  0.80082  Biso   1.000  H
  H36      1.0000 0.32595  0.91180  0.19918  Biso   1.000  H
  H37      1.0000 0.17499  0.51970  0.27460  Biso   1.000  H
  H38      1.0000 0.82501  0.48030  0.72540  Biso   1.000  H
  H39      1.0000 0.67499  0.98030  0.72540  Biso   1.000  H
  H40      1.0000 0.32501  0.01970  0.27460  Biso   1.000  H
  H41      1.0000 0.82428  0.58908  0.11500  Biso   1.000  H
  H42      1.0000 0.17572  0.41092  0.88500  Biso   1.000  H
  H43      1.0000 0.32428  0.91092  0.88500  Biso   1.000  H
  H44      1.0000 0.67572  0.08908  0.11500  Biso   1.000  H
  H45      1.0000 0.81826  0.47639  0.03724  Biso   1.000  H
  H46      1.0000 0.18174  0.52361  0.96276  Biso   1.000  H
  H47      1.0000 0.31826  0.02361  0.96276  Biso   1.000  H
  H48      1.0000 0.68174  0.97639  0.03724  Biso   1.000  H
  H49      1.0000 0.49169  0.28650  0.00966  Biso   1.000  H
  H50      1.0000 0.50831  0.71350  0.99034  Biso   1.000  H
  H51      1.0000 0.99169  0.21350  0.99034  Biso   1.000  H
  H52      1.0000 0.00831  0.78650  0.00966  Biso   1.000  H
  H53      1.0000 0.17409  0.20348  0.06150  Biso   1.000  H
  H54      1.0000 0.82591  0.79652  0.93850  Biso   1.000  H
  H55      1.0000 0.67409  0.29652  0.93850  Biso   1.000  H
  H56      1.0000 0.32591  0.70348  0.06150  Biso   1.000  H
  H57      1.0000 0.17757  0.31834  0.13888  Biso   1.000  H
  H58      1.0000 0.82243  0.68166  0.86112  Biso   1.000  H
  H59      1.0000 0.67757  0.18166  0.86112  Biso   1.000  H
  H60      1.0000 0.32243  0.81834  0.13888  Biso   1.000  H
  C1       1.0000 0.49970  0.93320  0.45500  Biso   1.000  C
  C2       1.0000 0.50030  0.06680  0.54500  Biso   1.000  C
  C3       1.0000 0.99970  0.56680  0.54500  Biso   1.000  C
  C4       1.0000 0.00030  0.43320  0.45500  Biso   1.000  C
  C5       1.0000 0.67820  0.03980  0.47190  Biso   1.000  C
  C6       1.0000 0.32180  0.96020  0.52810  Biso   1.000  C
  C7       1.0000 0.17820  0.46020  0.52810  Biso   1.000  C
  C8       1.0000 0.82180  0.53980  0.47190  Biso   1.000  C
  C9       1.0000 0.32020  0.89660  0.48420  Biso   1.000  C
  C10      1.0000 0.67980  0.10340  0.51580  Biso   1.000  C
  C11      1.0000 0.82020  0.60340  0.51580  Biso   1.000  C
  C12      1.0000 0.17980  0.39660  0.48420  Biso   1.000  C
  C13      1.0000 0.49910  0.86410  0.40780  Biso   1.000  C
  C14      1.0000 0.50090  0.13590  0.59220  Biso   1.000  C
  C15      1.0000 0.99910  0.63590  0.59220  Biso   1.000  C
  C16      1.0000 0.00090  0.36410  0.40780  Biso   1.000  C
  C17      1.0000 0.67770  0.90290  0.37860  Biso   1.000  C
  C18      1.0000 0.32230  0.09710  0.62140  Biso   1.000  C
  C19      1.0000 0.17770  0.59710  0.62140  Biso   1.000  C
  C20      1.0000 0.82230  0.40290  0.37860  Biso   1.000  C
  C21      1.0000 0.67940  0.83810  0.33470  Biso   1.000  C
  C22      1.0000 0.32060  0.16190  0.66530  Biso   1.000  C
  C23      1.0000 0.17940  0.66190  0.66530  Biso   1.000  C
  C24      1.0000 0.82060  0.33810  0.33470  Biso   1.000  C
  C25      1.0000 0.49930  0.73180  0.31780  Biso   1.000  C
  C26      1.0000 0.50070  0.26820  0.68220  Biso   1.000  C
  C27      1.0000 0.99930  0.76820  0.68220  Biso   1.000  C
  C28      1.0000 0.00070  0.23180  0.31780  Biso   1.000  C
  C29      1.0000 0.32170  0.69450  0.34700  Biso   1.000  C
  C30      1.0000 0.67830  0.30550  0.65300  Biso   1.000  C
  C31      1.0000 0.82170  0.80550  0.65300  Biso   1.000  C
  C32      1.0000 0.17830  0.19450  0.34700  Biso   1.000  C
  C33      1.0000 0.32160  0.75790  0.39100  Biso   1.000  C
  C34      1.0000 0.67840  0.24210  0.60900  Biso   1.000  C
  C35      1.0000 0.82160  0.74210  0.60900  Biso   1.000  C
  C36      1.0000 0.17840  0.25790  0.39100  Biso   1.000  C
  C37      1.0000 0.50070  0.66230  0.27090  Biso   1.000  C
  C38      1.0000 0.49930  0.33770  0.72910  Biso   1.000  C
  C39      1.0000 0.00070  0.83770  0.72910  Biso   1.000  C
  C40      1.0000 0.99930  0.16230  0.27090  Biso   1.000  C
  C41      1.0000 0.67740  0.70000  0.24150  Biso   1.000  C
  C42      1.0000 0.32260  0.30000  0.75850  Biso   1.000  C
  C43      1.0000 0.17740  0.80000  0.75850  Biso   1.000  C
  C44      1.0000 0.82260  0.20000  0.24150  Biso   1.000  C
  C45      1.0000 0.67760  0.63700  0.19770  Biso   1.000  C
  C46      1.0000 0.32240  0.36300  0.80230  Biso   1.000  C
  C47      1.0000 0.17760  0.86300  0.80230  Biso   1.000  C
  C48      1.0000 0.82240  0.13700  0.19770  Biso   1.000  C
  C49      1.0000 0.49880  0.53120  0.18080  Biso   1.000  C
  C50      1.0000 0.50120  0.46880  0.81920  Biso   1.000  C
  C51      1.0000 0.99880  0.96880  0.81920  Biso   1.000  C
  C52      1.0000 0.00120  0.03120  0.18080  Biso   1.000  C
  C53      1.0000 0.32280  0.49400  0.20980  Biso   1.000  C
  C54      1.0000 0.67720  0.50600  0.79020  Biso   1.000  C
  C55      1.0000 0.82280  0.00600  0.79020  Biso   1.000  C
  C56      1.0000 0.17720  0.99400  0.20980  Biso   1.000  C
  C57      1.0000 0.32330  0.55640  0.25390  Biso   1.000  C
  C58      1.0000 0.67670  0.44360  0.74610  Biso   1.000  C
  C59      1.0000 0.82330  0.94360  0.74610  Biso   1.000  C
  C60      1.0000 0.17670  0.05640  0.25390  Biso   1.000  C
  C61      1.0000 0.50030  0.46110  0.13330  Biso   1.000  C
  C62      1.0000 0.49970  0.53890  0.86670  Biso   1.000  C
  C63      1.0000 0.00030  0.03890  0.86670  Biso   1.000  C
  C64      1.0000 0.99970  0.96110  0.13330  Biso   1.000  C
  C65      1.0000 0.67880  0.50480  0.10410  Biso   1.000  C
  C66      1.0000 0.32120  0.49520  0.89590  Biso   1.000  C
  C67      1.0000 0.17880  0.99520  0.89590  Biso   1.000  C
  C68      1.0000 0.82120  0.00480  0.10410  Biso   1.000  C
  C69      1.0000 0.67660  0.43980  0.05950  Biso   1.000  C
  C70      1.0000 0.32340  0.56020  0.94050  Biso   1.000  C
  C71      1.0000 0.17660  0.06020  0.94050  Biso   1.000  C
  C72      1.0000 0.82340  0.93980  0.05950  Biso   1.000  C
  C73      1.0000 0.49500  0.33510  0.04450  Biso   1.000  C
  C74      1.0000 0.50500  0.66490  0.95550  Biso   1.000  C
  C75      1.0000 0.99500  0.16490  0.95550  Biso   1.000  C
  C76      1.0000 0.00500  0.83510  0.04450  Biso   1.000  C
  C77      1.0000 0.31800  0.28870  0.07280  Biso   1.000  C
  C78      1.0000 0.68200  0.71130  0.92720  Biso   1.000  C
  C79      1.0000 0.81800  0.21130  0.92720  Biso   1.000  C
  C80      1.0000 0.18200  0.78870  0.07280  Biso   1.000  C
  C81      1.0000 0.32180  0.35520  0.11730  Biso   1.000  C
  C82      1.0000 0.67820  0.64480  0.88270  Biso   1.000  C
  C83      1.0000 0.82180  0.14480  0.88270  Biso   1.000  C
  C84      1.0000 0.17820  0.85520  0.11730  Biso   1.000  C
