data_image0
_cell_length_a       8.2081
_cell_length_b       11.9527
_cell_length_c       12.341
_cell_angle_alpha    105.132
_cell_angle_beta     101.741
_cell_angle_gamma    101.179

_symmetry_space_group_name_H-M    "P 1"
_symmetry_int_tables_number       1

loop_
  _symmetry_equiv_pos_as_xyz
  'x, y, z'

loop_
  _atom_site_label
  _atom_site_occupancy
  _atom_site_fract_x
  _atom_site_fract_y
  _atom_site_fract_z
  _atom_site_thermal_displace_type
  _atom_site_B_iso_or_equiv
  _atom_site_type_symbol
  H1       1.0000 0.39257  0.24083  0.79809  Biso   1.000  H
  H2       1.0000 0.60743  0.75917  0.20191  Biso   1.000  H
  H3       1.0000 0.36612  0.03035  0.69880  Biso   1.000  H
  H4       1.0000 0.63388  0.96965  0.30120  Biso   1.000  H
  H5       1.0000 0.22875  0.93925  0.48906  Biso   1.000  H
  H6       1.0000 0.77125  0.06075  0.51094  Biso   1.000  H
  H7       1.0000 0.08358  0.96145  0.30149  Biso   1.000  H
  H8       1.0000 0.91642  0.03855  0.69851  Biso   1.000  H
  H9       1.0000 0.98753  0.09068  0.18986  Biso   1.000  H
  H10      1.0000 0.01247  0.90932  0.81014  Biso   1.000  H
  H11      1.0000 0.04153  0.30608  0.28078  Biso   1.000  H
  H12      1.0000 0.95847  0.69392  0.71922  Biso   1.000  H
  H13      1.0000 0.45934  0.66557  0.57386  Biso   1.000  H
  H14      1.0000 0.54066  0.33443  0.42614  Biso   1.000  H
  H15      1.0000 0.52751  0.87929  0.67453  Biso   1.000  H
  H16      1.0000 0.47249  0.12071  0.32547  Biso   1.000  H
  H17      1.0000 0.43883  0.95497  0.85556  Biso   1.000  H
  H18      1.0000 0.56117  0.04503  0.14444  Biso   1.000  H
  H19      1.0000 0.31265  0.91041  0.01154  Biso   1.000  H
  H20      1.0000 0.68735  0.08959  0.98846  Biso   1.000  H
  H21      1.0000 0.19376  0.76253  0.09950  Biso   1.000  H
  H22      1.0000 0.80624  0.23747  0.90050  Biso   1.000  H
  H23      1.0000 0.15561  0.54889  0.01140  Biso   1.000  H
  H24      1.0000 0.84439  0.45111  0.98860  Biso   1.000  H
  H25      1.0000 0.13527  0.26255  0.81715  Biso   1.000  H
  H26      1.0000 0.86473  0.73745  0.18285  Biso   1.000  H
  H27      1.0000 0.06566  0.37559  0.90294  Biso   1.000  H
  H28      1.0000 0.93434  0.62441  0.09706  Biso   1.000  H
  H29      1.0000 0.36393  0.45501  0.04378  Biso   1.000  H
  H30      1.0000 0.63607  0.54499  0.95622  Biso   1.000  H
  H31      1.0000 0.42660  0.33590  0.96264  Biso   1.000  H
  H32      1.0000 0.57340  0.66410  0.03736  Biso   1.000  H
  H33      1.0000 0.34147  0.29738  0.13480  Biso   1.000  H
  H34      1.0000 0.65853  0.70262  0.86520  Biso   1.000  H
  H35      1.0000 0.13371  0.31145  0.08192  Biso   1.000  H
  H36      1.0000 0.86629  0.68855  0.91808  Biso   1.000  H
  H37      1.0000 0.06986  0.12701  0.91238  Biso   1.000  H
  H38      1.0000 0.93014  0.87299  0.08762  Biso   1.000  H
  H39      1.0000 0.15098  0.09474  0.04152  Biso   1.000  H
  H40      1.0000 0.84902  0.90526  0.95848  Biso   1.000  H
  H41      1.0000 0.28657  0.11912  0.95055  Biso   1.000  H
  H42      1.0000 0.71343  0.88088  0.04945  Biso   1.000  H
  H43      1.0000 0.17237  0.60042  0.48807  Biso   1.000  H
  H44      1.0000 0.82763  0.39958  0.51193  Biso   1.000  H
  H45      1.0000 0.04311  0.47159  0.37647  Biso   1.000  H
  H46      1.0000 0.95689  0.52841  0.62353  Biso   1.000  H
  H47      1.0000 0.43119  0.56930  0.41356  Biso   1.000  H
  H48      1.0000 0.56881  0.43070  0.58644  Biso   1.000  H
  H49      1.0000 0.30244  0.43807  0.30569  Biso   1.000  H
  H50      1.0000 0.69756  0.56193  0.69431  Biso   1.000  H
  H51      1.0000 0.34440  0.60511  0.22540  Biso   1.000  H
  H52      1.0000 0.65560  0.39489  0.77460  Biso   1.000  H
  H53      1.0000 0.12463  0.55217  0.21553  Biso   1.000  H
  H54      1.0000 0.87537  0.44783  0.78447  Biso   1.000  H
  H55      1.0000 0.14448  0.72510  0.38693  Biso   1.000  H
  H56      1.0000 0.85552  0.27490  0.61307  Biso   1.000  H
  H57      1.0000 0.22923  0.78040  0.28510  Biso   1.000  H
  H58      1.0000 0.77077  0.21960  0.71490  Biso   1.000  H
  H59      1.0000 0.37121  0.77357  0.40979  Biso   1.000  H
  H60      1.0000 0.62879  0.22643  0.59021  Biso   1.000  H
  C1       1.0000 0.23480  0.43940  0.80960  Biso   1.000  C
  C2       1.0000 0.76520  0.56060  0.19040  Biso   1.000  C
  C3       1.0000 0.26420  0.40100  0.70240  Biso   1.000  C
  C4       1.0000 0.73580  0.59900  0.29760  Biso   1.000  C
  C5       1.0000 0.26750  0.27600  0.64480  Biso   1.000  C
  C6       1.0000 0.73250  0.72400  0.35520  Biso   1.000  C
  C7       1.0000 0.33010  0.20420  0.70520  Biso   1.000  C
  C8       1.0000 0.66990  0.79580  0.29480  Biso   1.000  C
  C9       1.0000 0.31800  0.08480  0.64800  Biso   1.000  C
  C10      1.0000 0.68200  0.91520  0.35200  Biso   1.000  C
  C11      1.0000 0.24410  0.03410  0.53180  Biso   1.000  C
  C12      1.0000 0.75590  0.96590  0.46820  Biso   1.000  C
  C13      1.0000 0.18450  0.10550  0.46420  Biso   1.000  C
  C14      1.0000 0.81550  0.89450  0.53580  Biso   1.000  C
  C15      1.0000 0.10410  0.05730  0.34360  Biso   1.000  C
  C16      1.0000 0.89590  0.94270  0.65640  Biso   1.000  C
  C17      1.0000 0.05230  0.12850  0.28270  Biso   1.000  C
  C18      1.0000 0.94770  0.87150  0.71730  Biso   1.000  C
  C19      1.0000 0.08020  0.25220  0.33490  Biso   1.000  C
  C20      1.0000 0.91980  0.74780  0.66510  Biso   1.000  C
  C21      1.0000 0.15900  0.30530  0.45480  Biso   1.000  C
  C22      1.0000 0.84100  0.69470  0.54520  Biso   1.000  C
  C23      1.0000 0.20950  0.43530  0.51150  Biso   1.000  C
  C24      1.0000 0.79050  0.56470  0.48850  Biso   1.000  C
  C25      1.0000 0.27220  0.48060  0.62970  Biso   1.000  C
  C26      1.0000 0.72780  0.51940  0.37030  Biso   1.000  C
  C27      1.0000 0.33390  0.61070  0.69420  Biso   1.000  C
  C28      1.0000 0.66610  0.38930  0.30580  Biso   1.000  C
  C29      1.0000 0.41890  0.69470  0.65280  Biso   1.000  C
  C30      1.0000 0.58110  0.30530  0.34720  Biso   1.000  C
  C31      1.0000 0.45940  0.81690  0.71110  Biso   1.000  C
  C32      1.0000 0.54060  0.18310  0.28890  Biso   1.000  C
  C33      1.0000 0.41340  0.85910  0.81160  Biso   1.000  C
  C34      1.0000 0.58660  0.14090  0.18840  Biso   1.000  C
  C35      1.0000 0.33570  0.77610  0.86320  Biso   1.000  C
  C36      1.0000 0.66430  0.22390  0.13680  Biso   1.000  C
  C37      1.0000 0.29230  0.81460  0.96960  Biso   1.000  C
  C38      1.0000 0.70770  0.18540  0.03040  Biso   1.000  C
  C39      1.0000 0.22680  0.73260  0.01740  Biso   1.000  C
  C40      1.0000 0.77320  0.26740  0.98260  Biso   1.000  C
  C41      1.0000 0.20220  0.60990  0.96620  Biso   1.000  C
  C42      1.0000 0.79780  0.39010  0.03380  Biso   1.000  C
  C43      1.0000 0.24050  0.56520  0.86020  Biso   1.000  C
  C44      1.0000 0.75950  0.43480  0.13980  Biso   1.000  C
  C45      1.0000 0.20370  0.22920  0.52140  Biso   1.000  C
  C46      1.0000 0.79630  0.77080  0.47860  Biso   1.000  C
  C47      1.0000 0.30260  0.65080  0.80560  Biso   1.000  C
  C48      1.0000 0.69740  0.34920  0.19440  Biso   1.000  C
  C49      1.0000 0.17960  0.35470  0.87690  Biso   1.000  C
  C50      1.0000 0.82040  0.64530  0.12310  Biso   1.000  C
  C51      1.0000 0.31380  0.36170  0.98620  Biso   1.000  C
  C52      1.0000 0.68620  0.63830  0.01380  Biso   1.000  C
  C53      1.0000 0.24230  0.28240  0.05430  Biso   1.000  C
  C54      1.0000 0.75770  0.71760  0.94570  Biso   1.000  C
  C55      1.0000 0.18410  0.14900  0.98590  Biso   1.000  C
  C56      1.0000 0.81590  0.85100  0.01410  Biso   1.000  C
  C57      1.0000 0.17430  0.51210  0.43440  Biso   1.000  C
  C58      1.0000 0.82570  0.48790  0.56560  Biso   1.000  C
  C59      1.0000 0.29890  0.52680  0.35800  Biso   1.000  C
  C60      1.0000 0.70110  0.47320  0.64200  Biso   1.000  C
  C61      1.0000 0.25110  0.60050  0.27770  Biso   1.000  C
  C62      1.0000 0.74890  0.39950  0.72230  Biso   1.000  C
  C63      1.0000 0.24860  0.72570  0.34330  Biso   1.000  C
  C64      1.0000 0.75140  0.27430  0.65670  Biso   1.000  C
