data_image0
_cell_length_a       5.2697
_cell_length_b       11.6839
_cell_length_c       14.6808
_cell_angle_alpha    90
_cell_angle_beta     90
_cell_angle_gamma    96.013

_symmetry_space_group_name_H-M    "P 1"
_symmetry_int_tables_number       1

loop_
  _symmetry_equiv_pos_as_xyz
  'x, y, z'

loop_
  _atom_site_label
  _atom_site_occupancy
  _atom_site_fract_x
  _atom_site_fract_y
  _atom_site_fract_z
  _atom_site_thermal_displace_type
  _atom_site_B_iso_or_equiv
  _atom_site_type_symbol
  H1       1.0000 0.47635  0.11727  0.56132  Biso   1.000  H
  H2       1.0000 0.52365  0.88273  0.06132  Biso   1.000  H
  H3       1.0000 0.68428  0.99170  0.66348  Biso   1.000  H
  H4       1.0000 0.31572  0.00830  0.16348  Biso   1.000  H
  H5       1.0000 0.10479  0.06111  0.73399  Biso   1.000  H
  H6       1.0000 0.89521  0.93889  0.23399  Biso   1.000  H
  H7       1.0000 0.28371  0.25954  0.71139  Biso   1.000  H
  H8       1.0000 0.71629  0.74046  0.21139  Biso   1.000  H
  H9       1.0000 0.40562  0.41876  0.70322  Biso   1.000  H
  H10      1.0000 0.59438  0.58124  0.20322  Biso   1.000  H
  H11      1.0000 0.52848  0.62497  0.70309  Biso   1.000  H
  H12      1.0000 0.47152  0.37503  0.20309  Biso   1.000  H
  H13      1.0000 0.46454  0.81846  0.65216  Biso   1.000  H
  H14      1.0000 0.53546  0.18154  0.15216  Biso   1.000  H
  H15      1.0000 0.22630  0.94999  0.56022  Biso   1.000  H
  H16      1.0000 0.77370  0.05001  0.06022  Biso   1.000  H
  H17      1.0000 0.88654  0.97909  0.45229  Biso   1.000  H
  H18      1.0000 0.11346  0.02091  0.95229  Biso   1.000  H
  H19      1.0000 0.52001  0.90101  0.35751  Biso   1.000  H
  H20      1.0000 0.47999  0.09899  0.85751  Biso   1.000  H
  H21      1.0000 0.22239  0.73665  0.30691  Biso   1.000  H
  H22      1.0000 0.77761  0.26335  0.80691  Biso   1.000  H
  H23      1.0000 0.08765  0.53146  0.30463  Biso   1.000  H
  H24      1.0000 0.91235  0.46854  0.80463  Biso   1.000  H
  H25      1.0000 0.99934  0.36795  0.29718  Biso   1.000  H
  H26      1.0000 0.00066  0.63205  0.79718  Biso   1.000  H
  H27      1.0000 0.94016  0.16248  0.26611  Biso   1.000  H
  H28      1.0000 0.05984  0.83752  0.76611  Biso   1.000  H
  H29      1.0000 0.25027  0.03476  0.32858  Biso   1.000  H
  H30      1.0000 0.74973  0.96524  0.82858  Biso   1.000  H
  H31      1.0000 0.58823  0.11298  0.43130  Biso   1.000  H
  H32      1.0000 0.41177  0.88702  0.93130  Biso   1.000  H
  C1       1.0000 0.66190  0.33190  0.50059  Biso   1.000  C
  C2       1.0000 0.33810  0.66810  0.00059  Biso   1.000  C
  C3       1.0000 0.77350  0.25940  0.56693  Biso   1.000  C
  C4       1.0000 0.22650  0.74060  0.06693  Biso   1.000  C
  C5       1.0000 0.66150  0.14740  0.58958  Biso   1.000  C
  C6       1.0000 0.33850  0.85260  0.08958  Biso   1.000  C
  C7       1.0000 0.77550  0.07760  0.64860  Biso   1.000  C
  C8       1.0000 0.22450  0.92240  0.14860  Biso   1.000  C
  C9       1.0000 0.00830  0.11680  0.68908  Biso   1.000  C
  C10      1.0000 0.99170  0.88320  0.18908  Biso   1.000  C
  C11      1.0000 0.11050  0.22820  0.67520  Biso   1.000  C
  C12      1.0000 0.88950  0.77180  0.17520  Biso   1.000  C
  C13      1.0000 0.99300  0.30350  0.61708  Biso   1.000  C
  C14      1.0000 0.00700  0.69650  0.11708  Biso   1.000  C
  C15      1.0000 0.08110  0.42440  0.61197  Biso   1.000  C
  C16      1.0000 0.91890  0.57560  0.11197  Biso   1.000  C
  C17      1.0000 0.29400  0.47370  0.66333  Biso   1.000  C
  C18      1.0000 0.70600  0.52630  0.16333  Biso   1.000  C
  C19      1.0000 0.36360  0.58930  0.66378  Biso   1.000  C
  C20      1.0000 0.63640  0.41070  0.16378  Biso   1.000  C
  C21      1.0000 0.22790  0.66510  0.61249  Biso   1.000  C
  C22      1.0000 0.77210  0.33490  0.11249  Biso   1.000  C
  C23      1.0000 0.29930  0.78540  0.61170  Biso   1.000  C
  C24      1.0000 0.70070  0.21460  0.11170  Biso   1.000  C
  C25      1.0000 0.16920  0.85770  0.56110  Biso   1.000  C
  C26      1.0000 0.83080  0.14230  0.06110  Biso   1.000  C
  C27      1.0000 0.95830  0.81370  0.50656  Biso   1.000  C
  C28      1.0000 0.04170  0.18630  0.00656  Biso   1.000  C
  C29      1.0000 0.82470  0.88710  0.45140  Biso   1.000  C
  C30      1.0000 0.17530  0.11290  0.95140  Biso   1.000  C
  C31      1.0000 0.62350  0.84440  0.39940  Biso   1.000  C
  C32      1.0000 0.37650  0.15560  0.89940  Biso   1.000  C
  C33      1.0000 0.54070  0.72440  0.39776  Biso   1.000  C
  C34      1.0000 0.45930  0.27560  0.89776  Biso   1.000  C
  C35      1.0000 0.32850  0.67820  0.34593  Biso   1.000  C
  C36      1.0000 0.67150  0.32180  0.84593  Biso   1.000  C
  C37      1.0000 0.25300  0.56300  0.34511  Biso   1.000  C
  C38      1.0000 0.74700  0.43700  0.84511  Biso   1.000  C
  C39      1.0000 0.38810  0.48450  0.39500  Biso   1.000  C
  C40      1.0000 0.61190  0.51550  0.89500  Biso   1.000  C
  C41      1.0000 0.32510  0.36120  0.38715  Biso   1.000  C
  C42      1.0000 0.67490  0.63880  0.88715  Biso   1.000  C
  C43      1.0000 0.12650  0.31270  0.32951  Biso   1.000  C
  C44      1.0000 0.87350  0.68730  0.82951  Biso   1.000  C
  C45      1.0000 0.09360  0.19680  0.31120  Biso   1.000  C
  C46      1.0000 0.90640  0.80320  0.81120  Biso   1.000  C
  C47      1.0000 0.26430  0.12540  0.34730  Biso   1.000  C
  C48      1.0000 0.73570  0.87460  0.84730  Biso   1.000  C
  C49      1.0000 0.45150  0.16880  0.40636  Biso   1.000  C
  C50      1.0000 0.54850  0.83120  0.90636  Biso   1.000  C
  C51      1.0000 0.47680  0.28620  0.43316  Biso   1.000  C
  C52      1.0000 0.52320  0.71380  0.93316  Biso   1.000  C
  C53      1.0000 0.73390  0.45050  0.50256  Biso   1.000  C
  C54      1.0000 0.26610  0.54950  0.00256  Biso   1.000  C
  C55      1.0000 0.94310  0.49780  0.55918  Biso   1.000  C
  C56      1.0000 0.05690  0.50220  0.05918  Biso   1.000  C
  C57      1.0000 0.01700  0.61870  0.55970  Biso   1.000  C
  C58      1.0000 0.98300  0.38130  0.05970  Biso   1.000  C
  C59      1.0000 0.88200  0.69420  0.50580  Biso   1.000  C
  C60      1.0000 0.11800  0.30580  0.00580  Biso   1.000  C
  C61      1.0000 0.67410  0.64830  0.45033  Biso   1.000  C
  C62      1.0000 0.32590  0.35170  0.95033  Biso   1.000  C
  C63      1.0000 0.59850  0.52710  0.44834  Biso   1.000  C
  C64      1.0000 0.40150  0.47290  0.94834  Biso   1.000  C
