data_image0
_cell_length_a       4.667
_cell_length_b       16.663
_cell_length_c       18.498
_cell_angle_alpha    90
_cell_angle_beta     90
_cell_angle_gamma    90

_symmetry_space_group_name_H-M    "P 1"
_symmetry_int_tables_number       1

loop_
  _symmetry_equiv_pos_as_xyz
  'x, y, z'

loop_
  _atom_site_label
  _atom_site_occupancy
  _atom_site_fract_x
  _atom_site_fract_y
  _atom_site_fract_z
  _atom_site_thermal_displace_type
  _atom_site_B_iso_or_equiv
  _atom_site_type_symbol
  H1       1.0000 0.96234  0.21279  0.58236  Biso   1.000  H
  H2       1.0000 0.53766  0.78721  0.08236  Biso   1.000  H
  H3       1.0000 0.03766  0.71279  0.91764  Biso   1.000  H
  H4       1.0000 0.46234  0.28721  0.41764  Biso   1.000  H
  H5       1.0000 0.13172  0.32918  0.51690  Biso   1.000  H
  H6       1.0000 0.36828  0.67082  0.01690  Biso   1.000  H
  H7       1.0000 0.86828  0.82918  0.98310  Biso   1.000  H
  H8       1.0000 0.63172  0.17082  0.48310  Biso   1.000  H
  H9       1.0000 0.54601  0.40894  0.56660  Biso   1.000  H
  H10      1.0000 0.95399  0.59106  0.06660  Biso   1.000  H
  H11      1.0000 0.45399  0.90894  0.93340  Biso   1.000  H
  H12      1.0000 0.04601  0.09106  0.43340  Biso   1.000  H
  H13      1.0000 0.74826  0.37330  0.68248  Biso   1.000  H
  H14      1.0000 0.75174  0.62670  0.18248  Biso   1.000  H
  H15      1.0000 0.25174  0.87330  0.81752  Biso   1.000  H
  H16      1.0000 0.24826  0.12670  0.31752  Biso   1.000  H
  H17      1.0000 0.91835  0.34356  0.77318  Biso   1.000  H
  H18      1.0000 0.58165  0.65644  0.27318  Biso   1.000  H
  H19      1.0000 0.08165  0.84356  0.72682  Biso   1.000  H
  H20      1.0000 0.41835  0.15644  0.22682  Biso   1.000  H
  H21      1.0000 0.05069  0.32330  0.89974  Biso   1.000  H
  H22      1.0000 0.44931  0.67670  0.39974  Biso   1.000  H
  H23      1.0000 0.94931  0.82330  0.60026  Biso   1.000  H
  H24      1.0000 0.55069  0.17670  0.10026  Biso   1.000  H
  H25      1.0000 0.80054  0.21988  0.97419  Biso   1.000  H
  H26      1.0000 0.69946  0.78012  0.47419  Biso   1.000  H
  H27      1.0000 0.19946  0.71988  0.52581  Biso   1.000  H
  H28      1.0000 0.30054  0.28012  0.02581  Biso   1.000  H
  H29      1.0000 0.45112  0.11317  0.98495  Biso   1.000  H
  H30      1.0000 0.04888  0.88683  0.48495  Biso   1.000  H
  H31      1.0000 0.54888  0.61317  0.51505  Biso   1.000  H
  H32      1.0000 0.95112  0.38683  0.01505  Biso   1.000  H
  H33      1.0000 0.09657  0.02270  0.93059  Biso   1.000  H
  H34      1.0000 0.40343  0.97730  0.43059  Biso   1.000  H
  H35      1.0000 0.90343  0.52270  0.56941  Biso   1.000  H
  H36      1.0000 0.59657  0.47730  0.06941  Biso   1.000  H
  H37      1.0000 0.81354  0.98092  0.82618  Biso   1.000  H
  H38      1.0000 0.68646  0.01908  0.32618  Biso   1.000  H
  H39      1.0000 0.18646  0.48092  0.67382  Biso   1.000  H
  H40      1.0000 0.31354  0.51908  0.17382  Biso   1.000  H
  H41      1.0000 0.56357  0.92907  0.72267  Biso   1.000  H
  H42      1.0000 0.93643  0.07093  0.22267  Biso   1.000  H
  H43      1.0000 0.43643  0.42907  0.77733  Biso   1.000  H
  H44      1.0000 0.06357  0.57093  0.27733  Biso   1.000  H
  H45      1.0000 0.48634  0.92174  0.59070  Biso   1.000  H
  H46      1.0000 0.01366  0.07826  0.09070  Biso   1.000  H
  H47      1.0000 0.51366  0.42174  0.90930  Biso   1.000  H
  H48      1.0000 0.98634  0.57826  0.40930  Biso   1.000  H
  H49      1.0000 0.78962  0.00805  0.51036  Biso   1.000  H
  H50      1.0000 0.71038  0.99195  0.01036  Biso   1.000  H
  H51      1.0000 0.21038  0.50805  0.98964  Biso   1.000  H
  H52      1.0000 0.28962  0.49195  0.48964  Biso   1.000  H
  H53      1.0000 0.11646  0.10652  0.56084  Biso   1.000  H
  H54      1.0000 0.38354  0.89348  0.06084  Biso   1.000  H
  H55      1.0000 0.88354  0.60652  0.93916  Biso   1.000  H
  H56      1.0000 0.61646  0.39348  0.43916  Biso   1.000  H
  C1       1.0000 0.14940  0.24410  0.60270  Biso   1.000  C
  C2       1.0000 0.35060  0.75590  0.10270  Biso   1.000  C
  C3       1.0000 0.85060  0.74410  0.89730  Biso   1.000  C
  C4       1.0000 0.64940  0.25590  0.39730  Biso   1.000  C
  C5       1.0000 0.24120  0.31090  0.56630  Biso   1.000  C
  C6       1.0000 0.25880  0.68910  0.06630  Biso   1.000  C
  C7       1.0000 0.75880  0.81090  0.93370  Biso   1.000  C
  C8       1.0000 0.74120  0.18910  0.43370  Biso   1.000  C
  C9       1.0000 0.46660  0.35580  0.59440  Biso   1.000  C
  C10      1.0000 0.03340  0.64420  0.09440  Biso   1.000  C
  C11      1.0000 0.53340  0.85580  0.90560  Biso   1.000  C
  C12      1.0000 0.96660  0.14420  0.40560  Biso   1.000  C
  C13      1.0000 0.58180  0.33500  0.66000  Biso   1.000  C
  C14      1.0000 0.91820  0.66500  0.16000  Biso   1.000  C
  C15      1.0000 0.41820  0.83500  0.84000  Biso   1.000  C
  C16      1.0000 0.08180  0.16500  0.34000  Biso   1.000  C
  C17      1.0000 0.80560  0.29790  0.80400  Biso   1.000  C
  C18      1.0000 0.69440  0.70210  0.30400  Biso   1.000  C
  C19      1.0000 0.19440  0.79790  0.69600  Biso   1.000  C
  C20      1.0000 0.30560  0.20210  0.19600  Biso   1.000  C
  C21      1.0000 0.88170  0.28660  0.87630  Biso   1.000  C
  C22      1.0000 0.61830  0.71340  0.37630  Biso   1.000  C
  C23      1.0000 0.11830  0.78660  0.62370  Biso   1.000  C
  C24      1.0000 0.38170  0.21340  0.12370  Biso   1.000  C
  C25      1.0000 0.74140  0.22860  0.91770  Biso   1.000  C
  C26      1.0000 0.75860  0.77140  0.41770  Biso   1.000  C
  C27      1.0000 0.25860  0.72860  0.58230  Biso   1.000  C
  C28      1.0000 0.24140  0.27140  0.08230  Biso   1.000  C
  C29      1.0000 0.39530  0.11850  0.92790  Biso   1.000  C
  C30      1.0000 0.10470  0.88150  0.42790  Biso   1.000  C
  C31      1.0000 0.60470  0.61850  0.57210  Biso   1.000  C
  C32      1.0000 0.89530  0.38150  0.07210  Biso   1.000  C
  C33      1.0000 0.20270  0.06890  0.89850  Biso   1.000  C
  C34      1.0000 0.29730  0.93110  0.39850  Biso   1.000  C
  C35      1.0000 0.79730  0.56890  0.60150  Biso   1.000  C
  C36      1.0000 0.70270  0.43110  0.10150  Biso   1.000  C
  C37      1.0000 0.92520  0.02430  0.79210  Biso   1.000  C
  C38      1.0000 0.57480  0.97570  0.29210  Biso   1.000  C
  C39      1.0000 0.07480  0.52430  0.70790  Biso   1.000  C
  C40      1.0000 0.42520  0.47570  0.20790  Biso   1.000  C
  C41      1.0000 0.67750  0.96950  0.68640  Biso   1.000  C
  C42      1.0000 0.82250  0.03050  0.18640  Biso   1.000  C
  C43      1.0000 0.32250  0.46950  0.81360  Biso   1.000  C
  C44      1.0000 0.17750  0.53050  0.31360  Biso   1.000  C
  C45      1.0000 0.63630  0.96490  0.61360  Biso   1.000  C
  C46      1.0000 0.86370  0.03510  0.11360  Biso   1.000  C
  C47      1.0000 0.36370  0.46490  0.88640  Biso   1.000  C
  C48      1.0000 0.13630  0.53510  0.38640  Biso   1.000  C
  C49      1.0000 0.80180  0.01490  0.56890  Biso   1.000  C
  C50      1.0000 0.69820  0.98510  0.06890  Biso   1.000  C
  C51      1.0000 0.19820  0.51490  0.93110  Biso   1.000  C
  C52      1.0000 0.30180  0.48510  0.43110  Biso   1.000  C
  C53      1.0000 0.98250  0.07200  0.59740  Biso   1.000  C
  C54      1.0000 0.51750  0.92800  0.09740  Biso   1.000  C
  C55      1.0000 0.01750  0.57200  0.90260  Biso   1.000  C
  C56      1.0000 0.48250  0.42800  0.40260  Biso   1.000  C
  C57      1.0000 0.27870  0.21710  0.66780  Biso   1.000  C
  C58      1.0000 0.22130  0.78290  0.16780  Biso   1.000  C
  C59      1.0000 0.72130  0.71710  0.83220  Biso   1.000  C
  C60      1.0000 0.77870  0.28290  0.33220  Biso   1.000  C
  C61      1.0000 0.49160  0.26690  0.69880  Biso   1.000  C
  C62      1.0000 0.00840  0.73310  0.19880  Biso   1.000  C
  C63      1.0000 0.50840  0.76690  0.80120  Biso   1.000  C
  C64      1.0000 0.99160  0.23310  0.30120  Biso   1.000  C
  C65      1.0000 0.59390  0.25090  0.77210  Biso   1.000  C
  C66      1.0000 0.90610  0.74910  0.27210  Biso   1.000  C
  C67      1.0000 0.40610  0.75090  0.72790  Biso   1.000  C
  C68      1.0000 0.09390  0.24910  0.22790  Biso   1.000  C
  C69      1.0000 0.46060  0.19000  0.81190  Biso   1.000  C
  C70      1.0000 0.03940  0.81000  0.31190  Biso   1.000  C
  C71      1.0000 0.53940  0.69000  0.68810  Biso   1.000  C
  C72      1.0000 0.96060  0.31000  0.18810  Biso   1.000  C
  C73      1.0000 0.53460  0.17920  0.88700  Biso   1.000  C
  C74      1.0000 0.96540  0.82080  0.38700  Biso   1.000  C
  C75      1.0000 0.46540  0.67920  0.61300  Biso   1.000  C
  C76      1.0000 0.03460  0.32080  0.11300  Biso   1.000  C
  C77      1.0000 0.25540  0.13650  0.77950  Biso   1.000  C
  C78      1.0000 0.24460  0.86350  0.27950  Biso   1.000  C
  C79      1.0000 0.74460  0.63650  0.72050  Biso   1.000  C
  C80      1.0000 0.75540  0.36350  0.22050  Biso   1.000  C
  C81      1.0000 0.12670  0.07540  0.82310  Biso   1.000  C
  C82      1.0000 0.37330  0.92460  0.32310  Biso   1.000  C
  C83      1.0000 0.87330  0.57540  0.67690  Biso   1.000  C
  C84      1.0000 0.62670  0.42460  0.17690  Biso   1.000  C
  C85      1.0000 0.86730  0.02580  0.71790  Biso   1.000  C
  C86      1.0000 0.63270  0.97420  0.21790  Biso   1.000  C
  C87      1.0000 0.13270  0.52580  0.78210  Biso   1.000  C
  C88      1.0000 0.36730  0.47420  0.28210  Biso   1.000  C
  C89      1.0000 0.01130  0.08330  0.67310  Biso   1.000  C
  C90      1.0000 0.48870  0.91670  0.17310  Biso   1.000  C
  C91      1.0000 0.98870  0.58330  0.82690  Biso   1.000  C
  C92      1.0000 0.51130  0.41670  0.32690  Biso   1.000  C
  C93      1.0000 0.18090  0.14460  0.70540  Biso   1.000  C
  C94      1.0000 0.31910  0.85540  0.20540  Biso   1.000  C
  C95      1.0000 0.81910  0.64460  0.79460  Biso   1.000  C
  C96      1.0000 0.68090  0.35540  0.29460  Biso   1.000  C
