data_image0
_cell_length_a       3.7651
_cell_length_b       16.2469
_cell_length_c       18.715
_cell_angle_alpha    106.549
_cell_angle_beta     90
_cell_angle_gamma    90

_symmetry_space_group_name_H-M    "P 1"
_symmetry_int_tables_number       1

loop_
  _symmetry_equiv_pos_as_xyz
  'x, y, z'

loop_
  _atom_site_label
  _atom_site_occupancy
  _atom_site_fract_x
  _atom_site_fract_y
  _atom_site_fract_z
  _atom_site_thermal_displace_type
  _atom_site_B_iso_or_equiv
  _atom_site_type_symbol
  H1       1.0000 0.49760  0.75883  0.31889  Biso   1.000  H
  H2       1.0000 0.50240  0.24117  0.68111  Biso   1.000  H
  H3       1.0000 0.99760  0.74117  0.18111  Biso   1.000  H
  H4       1.0000 0.00240  0.25883  0.81889  Biso   1.000  H
  H5       1.0000 0.50252  0.87163  0.25904  Biso   1.000  H
  H6       1.0000 0.49748  0.12837  0.74096  Biso   1.000  H
  H7       1.0000 0.00252  0.62837  0.24096  Biso   1.000  H
  H8       1.0000 0.99748  0.37163  0.75904  Biso   1.000  H
  H9       1.0000 0.65484  0.94900  0.20181  Biso   1.000  H
  H10      1.0000 0.34516  0.05100  0.79819  Biso   1.000  H
  H11      1.0000 0.15484  0.55100  0.29819  Biso   1.000  H
  H12      1.0000 0.84516  0.44900  0.70181  Biso   1.000  H
  H13      1.0000 0.81045  0.05207  0.13414  Biso   1.000  H
  H14      1.0000 0.18955  0.94793  0.86586  Biso   1.000  H
  H15      1.0000 0.31045  0.44793  0.36586  Biso   1.000  H
  H16      1.0000 0.68955  0.55207  0.63414  Biso   1.000  H
  H17      1.0000 0.12465  0.18774  0.20048  Biso   1.000  H
  H18      1.0000 0.87535  0.81226  0.79952  Biso   1.000  H
  H19      1.0000 0.62465  0.31226  0.29952  Biso   1.000  H
  H20      1.0000 0.37535  0.68774  0.70048  Biso   1.000  H
  H21      1.0000 0.21656  0.22421  0.33448  Biso   1.000  H
  H22      1.0000 0.78344  0.77579  0.66552  Biso   1.000  H
  H23      1.0000 0.71656  0.27579  0.16552  Biso   1.000  H
  H24      1.0000 0.28344  0.72421  0.83448  Biso   1.000  H
  H25      1.0000 0.21627  0.71968  0.60067  Biso   1.000  H
  H26      1.0000 0.78373  0.28032  0.39933  Biso   1.000  H
  H27      1.0000 0.71627  0.78032  0.89933  Biso   1.000  H
  H28      1.0000 0.28373  0.21968  0.10067  Biso   1.000  H
  H29      1.0000 0.11692  0.57182  0.52577  Biso   1.000  H
  H30      1.0000 0.88308  0.42818  0.47423  Biso   1.000  H
  H31      1.0000 0.61692  0.92818  0.97423  Biso   1.000  H
  H32      1.0000 0.38308  0.07182  0.02577  Biso   1.000  H
  H33      1.0000 0.79039  0.54293  0.40424  Biso   1.000  H
  H34      1.0000 0.20961  0.45707  0.59576  Biso   1.000  H
  H35      1.0000 0.29039  0.95707  0.09576  Biso   1.000  H
  H36      1.0000 0.70961  0.04293  0.90424  Biso   1.000  H
  H37      1.0000 0.63243  0.66176  0.35552  Biso   1.000  H
  H38      1.0000 0.36757  0.33824  0.64448  Biso   1.000  H
  H39      1.0000 0.13243  0.83824  0.14448  Biso   1.000  H
  H40      1.0000 0.86757  0.16176  0.85552  Biso   1.000  H
  C1       1.0000 0.76290  0.83253  0.42014  Biso   1.000  C
  C2       1.0000 0.23710  0.16747  0.57986  Biso   1.000  C
  C3       1.0000 0.26290  0.66747  0.07986  Biso   1.000  C
  C4       1.0000 0.73710  0.33253  0.92014  Biso   1.000  C
  C5       1.0000 0.61520  0.82032  0.34832  Biso   1.000  C
  C6       1.0000 0.38480  0.17968  0.65168  Biso   1.000  C
  C7       1.0000 0.11520  0.67968  0.15168  Biso   1.000  C
  C8       1.0000 0.88480  0.32032  0.84832  Biso   1.000  C
  C9       1.0000 0.61820  0.88405  0.31436  Biso   1.000  C
  C10      1.0000 0.38180  0.11595  0.68564  Biso   1.000  C
  C11      1.0000 0.11820  0.61595  0.18564  Biso   1.000  C
  C12      1.0000 0.88180  0.38405  0.81436  Biso   1.000  C
  C13      1.0000 0.76650  0.01064  0.23237  Biso   1.000  C
  C14      1.0000 0.23350  0.98936  0.76763  Biso   1.000  C
  C15      1.0000 0.26650  0.48936  0.26763  Biso   1.000  C
  C16      1.0000 0.73350  0.51064  0.73237  Biso   1.000  C
  C17      1.0000 0.85790  0.06776  0.19397  Biso   1.000  C
  C18      1.0000 0.14210  0.93224  0.80603  Biso   1.000  C
  C19      1.0000 0.35790  0.43224  0.30603  Biso   1.000  C
  C20      1.0000 0.64210  0.56776  0.69397  Biso   1.000  C
  C21      1.0000 0.02510  0.14485  0.23115  Biso   1.000  C
  C22      1.0000 0.97490  0.85515  0.76885  Biso   1.000  C
  C23      1.0000 0.52510  0.35515  0.26885  Biso   1.000  C
  C24      1.0000 0.47490  0.64485  0.73115  Biso   1.000  C
  C25      1.0000 0.07370  0.16583  0.30682  Biso   1.000  C
  C26      1.0000 0.92630  0.83417  0.69318  Biso   1.000  C
  C27      1.0000 0.57370  0.33417  0.19318  Biso   1.000  C
  C28      1.0000 0.42630  0.66583  0.80682  Biso   1.000  C
  C29      1.0000 0.00120  0.13321  0.42957  Biso   1.000  C
  C30      1.0000 0.99880  0.86679  0.57043  Biso   1.000  C
  C31      1.0000 0.50120  0.36679  0.07043  Biso   1.000  C
  C32      1.0000 0.49880  0.63321  0.92957  Biso   1.000  C
  C33      1.0000 0.00130  0.06770  0.46411  Biso   1.000  C
  C34      1.0000 0.99870  0.93230  0.53589  Biso   1.000  C
  C35      1.0000 0.50130  0.43230  0.03589  Biso   1.000  C
  C36      1.0000 0.49870  0.56770  0.96411  Biso   1.000  C
  C37      1.0000 0.88400  0.91527  0.45940  Biso   1.000  C
  C38      1.0000 0.11600  0.08473  0.54060  Biso   1.000  C
  C39      1.0000 0.38400  0.58473  0.04060  Biso   1.000  C
  C40      1.0000 0.61600  0.41527  0.95940  Biso   1.000  C
  C41      1.0000 0.76710  0.96564  0.34961  Biso   1.000  C
  C42      1.0000 0.23290  0.03436  0.65039  Biso   1.000  C
  C43      1.0000 0.26710  0.53436  0.15039  Biso   1.000  C
  C44      1.0000 0.73290  0.46564  0.84961  Biso   1.000  C
  C45      1.0000 0.82140  0.02938  0.31017  Biso   1.000  C
  C46      1.0000 0.17860  0.97062  0.68983  Biso   1.000  C
  C47      1.0000 0.32140  0.47062  0.18983  Biso   1.000  C
  C48      1.0000 0.67860  0.52938  0.81017  Biso   1.000  C
  C49      1.0000 0.95790  0.11127  0.34912  Biso   1.000  C
  C50      1.0000 0.04210  0.88873  0.65088  Biso   1.000  C
  C51      1.0000 0.45790  0.38873  0.15088  Biso   1.000  C
  C52      1.0000 0.54210  0.61127  0.84912  Biso   1.000  C
  C53      1.0000 0.88580  0.98230  0.42391  Biso   1.000  C
  C54      1.0000 0.11420  0.01770  0.57609  Biso   1.000  C
  C55      1.0000 0.38580  0.51770  0.07609  Biso   1.000  C
  C56      1.0000 0.61420  0.48230  0.92391  Biso   1.000  C
  C57      1.0000 0.81300  0.76174  0.45211  Biso   1.000  C
  C58      1.0000 0.18700  0.23826  0.54789  Biso   1.000  C
  C59      1.0000 0.31300  0.73826  0.04789  Biso   1.000  C
  C60      1.0000 0.68700  0.26174  0.95211  Biso   1.000  C
  C61      1.0000 0.95210  0.77855  0.52525  Biso   1.000  C
  C62      1.0000 0.04790  0.22145  0.47475  Biso   1.000  C
  C63      1.0000 0.45210  0.72145  0.97475  Biso   1.000  C
  C64      1.0000 0.54790  0.27855  0.02525  Biso   1.000  C
  C65      1.0000 0.06830  0.70779  0.54895  Biso   1.000  C
  C66      1.0000 0.93170  0.29221  0.45105  Biso   1.000  C
  C67      1.0000 0.56830  0.79221  0.95105  Biso   1.000  C
  C68      1.0000 0.43170  0.20779  0.04895  Biso   1.000  C
  C69      1.0000 0.01530  0.62450  0.50643  Biso   1.000  C
  C70      1.0000 0.98470  0.37550  0.49357  Biso   1.000  C
  C71      1.0000 0.51530  0.87550  0.99357  Biso   1.000  C
  C72      1.0000 0.48470  0.12450  0.00643  Biso   1.000  C
  C73      1.0000 0.84360  0.60846  0.43762  Biso   1.000  C
  C74      1.0000 0.15640  0.39154  0.56238  Biso   1.000  C
  C75      1.0000 0.34360  0.89154  0.06238  Biso   1.000  C
  C76      1.0000 0.65640  0.10846  0.93762  Biso   1.000  C
  C77      1.0000 0.75230  0.67556  0.41059  Biso   1.000  C
  C78      1.0000 0.24770  0.32444  0.58941  Biso   1.000  C
  C79      1.0000 0.25230  0.82444  0.08941  Biso   1.000  C
  C80      1.0000 0.74770  0.17556  0.91059  Biso   1.000  C
