data_image0
_cell_length_a       4.695
_cell_length_b       10.15
_cell_length_c       15.6899
_cell_angle_alpha    106.411
_cell_angle_beta     90
_cell_angle_gamma    90

_symmetry_space_group_name_H-M    "P 1"
_symmetry_int_tables_number       1

loop_
  _symmetry_equiv_pos_as_xyz
  'x, y, z'

loop_
  _atom_site_label
  _atom_site_occupancy
  _atom_site_fract_x
  _atom_site_fract_y
  _atom_site_fract_z
  _atom_site_thermal_displace_type
  _atom_site_B_iso_or_equiv
  _atom_site_type_symbol
  C1       1.0000 0.41900  0.84460  0.88060  Biso   1.000  C
  C2       1.0000 0.58100  0.15540  0.11940  Biso   1.000  C
  C3       1.0000 0.91900  0.65540  0.61940  Biso   1.000  C
  C4       1.0000 0.08100  0.34460  0.38060  Biso   1.000  C
  C5       1.0000 0.49800  0.71410  0.88810  Biso   1.000  C
  C6       1.0000 0.50200  0.28590  0.11190  Biso   1.000  C
  C7       1.0000 0.99800  0.78590  0.61190  Biso   1.000  C
  C8       1.0000 0.00200  0.21410  0.38810  Biso   1.000  C
  C9       1.0000 0.37700  0.66120  0.95220  Biso   1.000  C
  C10      1.0000 0.62300  0.33880  0.04780  Biso   1.000  C
  C11      1.0000 0.87700  0.83880  0.54780  Biso   1.000  C
  C12      1.0000 0.12300  0.16120  0.45220  Biso   1.000  C
  C13      1.0000 0.16900  0.73520  0.01220  Biso   1.000  C
  C14      1.0000 0.83100  0.26480  0.98780  Biso   1.000  C
  C15      1.0000 0.66900  0.76480  0.48780  Biso   1.000  C
  C16      1.0000 0.33100  0.23520  0.51220  Biso   1.000  C
  C17      1.0000 0.04100  0.68430  0.07830  Biso   1.000  C
  C18      1.0000 0.95900  0.31570  0.92170  Biso   1.000  C
  C19      1.0000 0.54100  0.81570  0.42170  Biso   1.000  C
  C20      1.0000 0.45900  0.18430  0.57830  Biso   1.000  C
  C21      1.0000 0.83900  0.75900  0.13600  Biso   1.000  C
  C22      1.0000 0.16100  0.24100  0.86400  Biso   1.000  C
  C23      1.0000 0.33900  0.74100  0.36400  Biso   1.000  C
  C24      1.0000 0.66100  0.25900  0.63600  Biso   1.000  C
  C25      1.0000 0.75000  0.89070  0.13170  Biso   1.000  C
  C26      1.0000 0.25000  0.10930  0.86830  Biso   1.000  C
  C27      1.0000 0.25000  0.60930  0.36830  Biso   1.000  C
  C28      1.0000 0.75000  0.39070  0.63170  Biso   1.000  C
  C29      1.0000 0.54400  0.96970  0.18970  Biso   1.000  C
  C30      1.0000 0.45600  0.03030  0.81030  Biso   1.000  C
  C31      1.0000 0.04400  0.53030  0.31030  Biso   1.000  C
  C32      1.0000 0.95600  0.46970  0.68970  Biso   1.000  C
  C33      1.0000 0.53800  0.90250  0.81650  Biso   1.000  C
  C34      1.0000 0.46200  0.09750  0.18350  Biso   1.000  C
  C35      1.0000 0.03800  0.59750  0.68350  Biso   1.000  C
  C36      1.0000 0.96200  0.40250  0.31650  Biso   1.000  C
  C37      1.0000 0.20900  0.92230  0.94030  Biso   1.000  C
  C38      1.0000 0.79100  0.07770  0.05970  Biso   1.000  C
  C39      1.0000 0.70900  0.57770  0.55970  Biso   1.000  C
  C40      1.0000 0.29100  0.42230  0.44030  Biso   1.000  C
  C41      1.0000 0.08400  0.86810  0.00610  Biso   1.000  C
  C42      1.0000 0.91600  0.13190  0.99390  Biso   1.000  C
  C43      1.0000 0.58400  0.63190  0.49390  Biso   1.000  C
  C44      1.0000 0.41600  0.36810  0.50610  Biso   1.000  C
  C45      1.0000 0.87500  0.94480  0.06580  Biso   1.000  C
  C46      1.0000 0.12500  0.05520  0.93420  Biso   1.000  C
  C47      1.0000 0.37500  0.55520  0.43420  Biso   1.000  C
  C48      1.0000 0.62500  0.44480  0.56580  Biso   1.000  C
  H1       1.0000 0.55451  0.07200  0.76059  Biso   1.000  H
  H2       1.0000 0.25853  0.28325  0.81425  Biso   1.000  H
  H3       1.0000 0.10388  0.58311  0.08314  Biso   1.000  H
  H4       1.0000 0.69925  0.84449  0.77134  Biso   1.000  H
  H5       1.0000 0.65929  0.65529  0.84313  Biso   1.000  H
  H6       1.0000 0.44094  0.55999  0.95628  Biso   1.000  H
  H7       1.0000 0.55906  0.44001  0.04372  Biso   1.000  H
  H8       1.0000 0.34071  0.34471  0.15687  Biso   1.000  H
  H9       1.0000 0.30075  0.15551  0.22866  Biso   1.000  H
  H10      1.0000 0.89612  0.41689  0.91686  Biso   1.000  H
  H11      1.0000 0.74147  0.71675  0.18575  Biso   1.000  H
  H12      1.0000 0.44549  0.92800  0.23941  Biso   1.000  H
  H13      1.0000 0.15929  0.84471  0.65687  Biso   1.000  H
  H14      1.0000 0.19925  0.65551  0.72866  Biso   1.000  H
  H15      1.0000 0.05451  0.42800  0.73941  Biso   1.000  H
  H16      1.0000 0.94094  0.94001  0.54372  Biso   1.000  H
  H17      1.0000 0.60388  0.91689  0.41686  Biso   1.000  H
  H18      1.0000 0.75853  0.21675  0.68575  Biso   1.000  H
  H19      1.0000 0.24147  0.78325  0.31425  Biso   1.000  H
  H20      1.0000 0.05906  0.05999  0.45628  Biso   1.000  H
  H21      1.0000 0.39612  0.08311  0.58314  Biso   1.000  H
  H22      1.0000 0.94549  0.57200  0.26059  Biso   1.000  H
  H23      1.0000 0.80075  0.34449  0.27134  Biso   1.000  H
  H24      1.0000 0.84071  0.15529  0.34313  Biso   1.000  H
