data_image0
_cell_length_a       4.8014
_cell_length_b       13.539
_cell_length_c       22.091
_cell_angle_alpha    90
_cell_angle_beta     91.317
_cell_angle_gamma    90

_symmetry_space_group_name_H-M    "P 1"
_symmetry_int_tables_number       1

loop_
  _symmetry_equiv_pos_as_xyz
  'x, y, z'

loop_
  _atom_site_label
  _atom_site_occupancy
  _atom_site_fract_x
  _atom_site_fract_y
  _atom_site_fract_z
  _atom_site_thermal_displace_type
  _atom_site_B_iso_or_equiv
  _atom_site_type_symbol
  H1       1.0000 0.82983  0.33210  0.33812  Biso   1.000  H
  H2       1.0000 0.17017  0.66790  0.66188  Biso   1.000  H
  H3       1.0000 0.17017  0.83210  0.16188  Biso   1.000  H
  H4       1.0000 0.82983  0.16790  0.83812  Biso   1.000  H
  H5       1.0000 0.62709  0.35892  0.23847  Biso   1.000  H
  H6       1.0000 0.37291  0.64108  0.76153  Biso   1.000  H
  H7       1.0000 0.37291  0.85892  0.26153  Biso   1.000  H
  H8       1.0000 0.62709  0.14108  0.73847  Biso   1.000  H
  H9       1.0000 0.62305  0.30059  0.11580  Biso   1.000  H
  H10      1.0000 0.37695  0.69941  0.88420  Biso   1.000  H
  H11      1.0000 0.37695  0.80059  0.38420  Biso   1.000  H
  H12      1.0000 0.62305  0.19941  0.61580  Biso   1.000  H
  H13      1.0000 0.81754  0.19044  0.04138  Biso   1.000  H
  H14      1.0000 0.18246  0.80956  0.95862  Biso   1.000  H
  H15      1.0000 0.18246  0.69044  0.45862  Biso   1.000  H
  H16      1.0000 0.81754  0.30956  0.54138  Biso   1.000  H
  H17      1.0000 0.19820  0.03701  0.01961  Biso   1.000  H
  H18      1.0000 0.80180  0.96299  0.98039  Biso   1.000  H
  H19      1.0000 0.80180  0.53701  0.48039  Biso   1.000  H
  H20      1.0000 0.19820  0.46299  0.51961  Biso   1.000  H
  H21      1.0000 0.54509  0.92901  0.06638  Biso   1.000  H
  H22      1.0000 0.45491  0.07099  0.93362  Biso   1.000  H
  H23      1.0000 0.45491  0.42901  0.43362  Biso   1.000  H
  H24      1.0000 0.54509  0.57099  0.56638  Biso   1.000  H
  H25      1.0000 0.68648  0.93634  0.17308  Biso   1.000  H
  H26      1.0000 0.31352  0.06366  0.82692  Biso   1.000  H
  H27      1.0000 0.31352  0.43634  0.32692  Biso   1.000  H
  H28      1.0000 0.68648  0.56366  0.67308  Biso   1.000  H
  H29      1.0000 0.85383  0.93675  0.30342  Biso   1.000  H
  H30      1.0000 0.14617  0.06325  0.69658  Biso   1.000  H
  H31      1.0000 0.14617  0.43675  0.19658  Biso   1.000  H
  H32      1.0000 0.85383  0.56325  0.80342  Biso   1.000  H
  H33      1.0000 0.93533  0.95615  0.42045  Biso   1.000  H
  H34      1.0000 0.06467  0.04385  0.57955  Biso   1.000  H
  H35      1.0000 0.06467  0.45615  0.07955  Biso   1.000  H
  H36      1.0000 0.93533  0.54385  0.92045  Biso   1.000  H
  H37      1.0000 0.67932  0.09346  0.51154  Biso   1.000  H
  H38      1.0000 0.32068  0.90654  0.48846  Biso   1.000  H
  H39      1.0000 0.32068  0.59346  0.98846  Biso   1.000  H
  H40      1.0000 0.67932  0.40654  0.01154  Biso   1.000  H
  H41      1.0000 0.33135  0.22622  0.52031  Biso   1.000  H
  H42      1.0000 0.66865  0.77378  0.47969  Biso   1.000  H
  H43      1.0000 0.66865  0.72622  0.97969  Biso   1.000  H
  H44      1.0000 0.33135  0.27378  0.02031  Biso   1.000  H
  H45      1.0000 0.06484  0.28718  0.43291  Biso   1.000  H
  H46      1.0000 0.93516  0.71282  0.56709  Biso   1.000  H
  H47      1.0000 0.93516  0.78718  0.06709  Biso   1.000  H
  H48      1.0000 0.06484  0.21282  0.93291  Biso   1.000  H
  C1       1.0000 0.90690  0.28840  0.30064  Biso   1.000  C
  C2       1.0000 0.09310  0.71160  0.69936  Biso   1.000  C
  C3       1.0000 0.09310  0.78840  0.19936  Biso   1.000  C
  C4       1.0000 0.90690  0.21160  0.80064  Biso   1.000  C
  C5       1.0000 0.79080  0.30380  0.24398  Biso   1.000  C
  C6       1.0000 0.20920  0.69620  0.75602  Biso   1.000  C
  C7       1.0000 0.20920  0.80380  0.25602  Biso   1.000  C
  C8       1.0000 0.79080  0.19620  0.74398  Biso   1.000  C
  C9       1.0000 0.87630  0.24820  0.19249  Biso   1.000  C
  C10      1.0000 0.12370  0.75180  0.80751  Biso   1.000  C
  C11      1.0000 0.12370  0.74820  0.30751  Biso   1.000  C
  C12      1.0000 0.87630  0.25180  0.69249  Biso   1.000  C
  C13      1.0000 0.78720  0.24910  0.12993  Biso   1.000  C
  C14      1.0000 0.21280  0.75090  0.87007  Biso   1.000  C
  C15      1.0000 0.21280  0.74910  0.37007  Biso   1.000  C
  C16      1.0000 0.78720  0.25090  0.62993  Biso   1.000  C
  C17      1.0000 0.89690  0.18720  0.08799  Biso   1.000  C
  C18      1.0000 0.10310  0.81280  0.91201  Biso   1.000  C
  C19      1.0000 0.10310  0.68720  0.41201  Biso   1.000  C
  C20      1.0000 0.89690  0.31280  0.58799  Biso   1.000  C
  C21      1.0000 0.11100  0.11570  0.10360  Biso   1.000  C
  C22      1.0000 0.88900  0.88430  0.89640  Biso   1.000  C
  C23      1.0000 0.88900  0.61570  0.39640  Biso   1.000  C
  C24      1.0000 0.11100  0.38430  0.60360  Biso   1.000  C
  C25      1.0000 0.24680  0.04460  0.06784  Biso   1.000  C
  C26      1.0000 0.75320  0.95540  0.93216  Biso   1.000  C
  C27      1.0000 0.75320  0.54460  0.43216  Biso   1.000  C
  C28      1.0000 0.24680  0.45540  0.56784  Biso   1.000  C
  C29      1.0000 0.44470  0.98390  0.09466  Biso   1.000  C
  C30      1.0000 0.55530  0.01610  0.90534  Biso   1.000  C
  C31      1.0000 0.55530  0.48390  0.40534  Biso   1.000  C
  C32      1.0000 0.44470  0.51610  0.59466  Biso   1.000  C
  C33      1.0000 0.52600  0.98700  0.15632  Biso   1.000  C
  C34      1.0000 0.47400  0.01300  0.84368  Biso   1.000  C
  C35      1.0000 0.47400  0.48700  0.34368  Biso   1.000  C
  C36      1.0000 0.52600  0.51300  0.65632  Biso   1.000  C
  C37      1.0000 0.39870  0.05400  0.19263  Biso   1.000  C
  C38      1.0000 0.60130  0.94600  0.80737  Biso   1.000  C
  C39      1.0000 0.60130  0.55400  0.30737  Biso   1.000  C
  C40      1.0000 0.39870  0.44600  0.69263  Biso   1.000  C
  C41      1.0000 0.40580  0.08400  0.25829  Biso   1.000  C
  C42      1.0000 0.59420  0.91600  0.74171  Biso   1.000  C
  C43      1.0000 0.59420  0.58400  0.24171  Biso   1.000  C
  C44      1.0000 0.40580  0.41600  0.75829  Biso   1.000  C
  C45      1.0000 0.53770  0.05960  0.31161  Biso   1.000  C
  C46      1.0000 0.46230  0.94040  0.68839  Biso   1.000  C
  C47      1.0000 0.46230  0.55960  0.18839  Biso   1.000  C
  C48      1.0000 0.53770  0.44040  0.81161  Biso   1.000  C
  C49      1.0000 0.74720  0.98860  0.33241  Biso   1.000  C
  C50      1.0000 0.25280  0.01140  0.66759  Biso   1.000  C
  C51      1.0000 0.25280  0.48860  0.16759  Biso   1.000  C
  C52      1.0000 0.74720  0.51140  0.83241  Biso   1.000  C
  C53      1.0000 0.79000  0.99900  0.39260  Biso   1.000  C
  C54      1.0000 0.21000  0.00100  0.60740  Biso   1.000  C
  C55      1.0000 0.21000  0.49900  0.10740  Biso   1.000  C
  C56      1.0000 0.79000  0.50100  0.89260  Biso   1.000  C
  C57      1.0000 0.61130  0.07790  0.41538  Biso   1.000  C
  C58      1.0000 0.38870  0.92210  0.58462  Biso   1.000  C
  C59      1.0000 0.38870  0.57790  0.08462  Biso   1.000  C
  C60      1.0000 0.61130  0.42210  0.91538  Biso   1.000  C
  C61      1.0000 0.56670  0.11900  0.47109  Biso   1.000  C
  C62      1.0000 0.43330  0.88100  0.52891  Biso   1.000  C
  C63      1.0000 0.43330  0.61900  0.02891  Biso   1.000  C
  C64      1.0000 0.56670  0.38100  0.97109  Biso   1.000  C
  C65      1.0000 0.36930  0.19490  0.47579  Biso   1.000  C
  C66      1.0000 0.63070  0.80510  0.52421  Biso   1.000  C
  C67      1.0000 0.63070  0.69490  0.02421  Biso   1.000  C
  C68      1.0000 0.36930  0.30510  0.97579  Biso   1.000  C
  C69      1.0000 0.22020  0.22940  0.42694  Biso   1.000  C
  C70      1.0000 0.77980  0.77060  0.57306  Biso   1.000  C
  C71      1.0000 0.77980  0.72940  0.07306  Biso   1.000  C
  C72      1.0000 0.22020  0.27060  0.92694  Biso   1.000  C
  C73      1.0000 0.26100  0.18930  0.36840  Biso   1.000  C
  C74      1.0000 0.73900  0.81070  0.63160  Biso   1.000  C
  C75      1.0000 0.73900  0.68930  0.13160  Biso   1.000  C
  C76      1.0000 0.26100  0.31070  0.86840  Biso   1.000  C
  C77      1.0000 0.12130  0.21580  0.31240  Biso   1.000  C
  C78      1.0000 0.87870  0.78420  0.68760  Biso   1.000  C
  C79      1.0000 0.87870  0.71580  0.18760  Biso   1.000  C
  C80      1.0000 0.12130  0.28420  0.81240  Biso   1.000  C
  C81      1.0000 0.20290  0.16250  0.26238  Biso   1.000  C
  C82      1.0000 0.79710  0.83750  0.73762  Biso   1.000  C
  C83      1.0000 0.79710  0.66250  0.23762  Biso   1.000  C
  C84      1.0000 0.20290  0.33750  0.76238  Biso   1.000  C
  C85      1.0000 0.08130  0.17990  0.20555  Biso   1.000  C
  C86      1.0000 0.91870  0.82010  0.79445  Biso   1.000  C
  C87      1.0000 0.91870  0.67990  0.29445  Biso   1.000  C
  C88      1.0000 0.08130  0.32010  0.70555  Biso   1.000  C
  C89      1.0000 0.19650  0.11550  0.16374  Biso   1.000  C
  C90      1.0000 0.80350  0.88450  0.83626  Biso   1.000  C
  C91      1.0000 0.80350  0.61550  0.33626  Biso   1.000  C
  C92      1.0000 0.19650  0.38450  0.66374  Biso   1.000  C
  C93      1.0000 0.45860  0.11430  0.36492  Biso   1.000  C
  C94      1.0000 0.54140  0.88570  0.63508  Biso   1.000  C
  C95      1.0000 0.54140  0.61430  0.13508  Biso   1.000  C
  C96      1.0000 0.45860  0.38570  0.86492  Biso   1.000  C
