data_image0
_cell_length_a       4.7
_cell_length_b       10.12
_cell_length_c       19.47
_cell_angle_alpha    105
_cell_angle_beta     90
_cell_angle_gamma    90

_symmetry_space_group_name_H-M    "P 1"
_symmetry_int_tables_number       1

loop_
  _symmetry_equiv_pos_as_xyz
  'x, y, z'

loop_
  _atom_site_label
  _atom_site_occupancy
  _atom_site_fract_x
  _atom_site_fract_y
  _atom_site_fract_z
  _atom_site_thermal_displace_type
  _atom_site_B_iso_or_equiv
  _atom_site_type_symbol
  H1       1.0000 0.05965  0.52871  0.11632  Biso   1.000  H
  H2       1.0000 0.94035  0.47129  0.88368  Biso   1.000  H
  H3       1.0000 0.55965  0.47129  0.38368  Biso   1.000  H
  H4       1.0000 0.44035  0.52871  0.61632  Biso   1.000  H
  H5       1.0000 0.41342  0.48016  0.20008  Biso   1.000  H
  H6       1.0000 0.58658  0.51984  0.79992  Biso   1.000  H
  H7       1.0000 0.91342  0.51984  0.29992  Biso   1.000  H
  H8       1.0000 0.08658  0.48016  0.70008  Biso   1.000  H
  H9       1.0000 0.70805  0.31288  0.24278  Biso   1.000  H
  H10      1.0000 0.29195  0.68712  0.75722  Biso   1.000  H
  H11      1.0000 0.20805  0.68712  0.25722  Biso   1.000  H
  H12      1.0000 0.79195  0.31288  0.74278  Biso   1.000  H
  H13      1.0000 0.85064  0.07635  0.23506  Biso   1.000  H
  H14      1.0000 0.14936  0.92365  0.76494  Biso   1.000  H
  H15      1.0000 0.35064  0.92365  0.26494  Biso   1.000  H
  H16      1.0000 0.64936  0.07635  0.73506  Biso   1.000  H
  H17      1.0000 0.80579  0.82729  0.17928  Biso   1.000  H
  H18      1.0000 0.19421  0.17271  0.82072  Biso   1.000  H
  H19      1.0000 0.30579  0.17271  0.32072  Biso   1.000  H
  H20      1.0000 0.69421  0.82729  0.67928  Biso   1.000  H
  H21      1.0000 0.41061  0.36260  0.90955  Biso   1.000  H
  H22      1.0000 0.58939  0.63740  0.09045  Biso   1.000  H
  H23      1.0000 0.91061  0.63740  0.59045  Biso   1.000  H
  H24      1.0000 0.08939  0.36260  0.40955  Biso   1.000  H
  H25      1.0000 0.73656  0.44563  0.01220  Biso   1.000  H
  H26      1.0000 0.26344  0.55437  0.98780  Biso   1.000  H
  H27      1.0000 0.23656  0.55437  0.48780  Biso   1.000  H
  H28      1.0000 0.76344  0.44563  0.51220  Biso   1.000  H
  C1       1.0000 0.99780  0.31570  0.05820  Biso   1.000  C
  C2       1.0000 0.00220  0.68430  0.94180  Biso   1.000  C
  C3       1.0000 0.49780  0.68430  0.44180  Biso   1.000  C
  C4       1.0000 0.50220  0.31570  0.55820  Biso   1.000  C
  C5       1.0000 0.67570  0.23390  0.95760  Biso   1.000  C
  C6       1.0000 0.32430  0.76610  0.04240  Biso   1.000  C
  C7       1.0000 0.17570  0.76610  0.54240  Biso   1.000  C
  C8       1.0000 0.82430  0.23390  0.45760  Biso   1.000  C
  C9       1.0000 0.79870  0.34060  0.00940  Biso   1.000  C
  C10      1.0000 0.20130  0.65940  0.99060  Biso   1.000  C
  C11      1.0000 0.29870  0.65940  0.49060  Biso   1.000  C
  C12      1.0000 0.70130  0.34060  0.50940  Biso   1.000  C
  C13      1.0000 0.95930  0.06920  0.00190  Biso   1.000  C
  C14      1.0000 0.04070  0.93080  0.99810  Biso   1.000  C
  C15      1.0000 0.45930  0.93080  0.49810  Biso   1.000  C
  C16      1.0000 0.54070  0.06920  0.50190  Biso   1.000  C
  C17      1.0000 0.08030  0.17830  0.05420  Biso   1.000  C
  C18      1.0000 0.91970  0.82170  0.94580  Biso   1.000  C
  C19      1.0000 0.58030  0.82170  0.44580  Biso   1.000  C
  C20      1.0000 0.41970  0.17830  0.55420  Biso   1.000  C
  C21      1.0000 0.28680  0.15120  0.10300  Biso   1.000  C
  C22      1.0000 0.71320  0.84880  0.89700  Biso   1.000  C
  C23      1.0000 0.78680  0.84880  0.39700  Biso   1.000  C
  C24      1.0000 0.21320  0.15120  0.60300  Biso   1.000  C
  C25      1.0000 0.36770  0.01350  0.09490  Biso   1.000  C
  C26      1.0000 0.63230  0.98650  0.90510  Biso   1.000  C
  C27      1.0000 0.86770  0.98650  0.40510  Biso   1.000  C
  C28      1.0000 0.13230  0.01350  0.59490  Biso   1.000  C
  C29      1.0000 0.75570  0.09670  0.95370  Biso   1.000  C
  C30      1.0000 0.24430  0.90330  0.04630  Biso   1.000  C
  C31      1.0000 0.25570  0.90330  0.54630  Biso   1.000  C
  C32      1.0000 0.74430  0.09670  0.45370  Biso   1.000  C
  C33      1.0000 0.12350  0.42350  0.11280  Biso   1.000  C
  C34      1.0000 0.87650  0.57650  0.88720  Biso   1.000  C
  C35      1.0000 0.62350  0.57650  0.38720  Biso   1.000  C
  C36      1.0000 0.37650  0.42350  0.61280  Biso   1.000  C
  C37      1.0000 0.31860  0.39680  0.15940  Biso   1.000  C
  C38      1.0000 0.68140  0.60320  0.84060  Biso   1.000  C
  C39      1.0000 0.81860  0.60320  0.34060  Biso   1.000  C
  C40      1.0000 0.18140  0.39680  0.65940  Biso   1.000  C
  C41      1.0000 0.40840  0.26020  0.15590  Biso   1.000  C
  C42      1.0000 0.59160  0.73980  0.84410  Biso   1.000  C
  C43      1.0000 0.90840  0.73980  0.34410  Biso   1.000  C
  C44      1.0000 0.09160  0.26020  0.65590  Biso   1.000  C
  C45      1.0000 0.61230  0.22900  0.20270  Biso   1.000  C
  C46      1.0000 0.38770  0.77100  0.79730  Biso   1.000  C
  C47      1.0000 0.11230  0.77100  0.29730  Biso   1.000  C
  C48      1.0000 0.88770  0.22900  0.70270  Biso   1.000  C
  C49      1.0000 0.69350  0.09750  0.19820  Biso   1.000  C
  C50      1.0000 0.30650  0.90250  0.80180  Biso   1.000  C
  C51      1.0000 0.19350  0.90250  0.30180  Biso   1.000  C
  C52      1.0000 0.80650  0.09750  0.69820  Biso   1.000  C
  C53      1.0000 0.57460  0.98630  0.14690  Biso   1.000  C
  C54      1.0000 0.42540  0.01370  0.85310  Biso   1.000  C
  C55      1.0000 0.07460  0.01370  0.35310  Biso   1.000  C
  C56      1.0000 0.92540  0.98630  0.64690  Biso   1.000  C
  C57      1.0000 0.64890  0.84730  0.14190  Biso   1.000  C
  C58      1.0000 0.35110  0.15270  0.85810  Biso   1.000  C
  C59      1.0000 0.14890  0.15270  0.35810  Biso   1.000  C
  C60      1.0000 0.85110  0.84730  0.64190  Biso   1.000  C
  C61      1.0000 0.46960  0.25730  0.90700  Biso   1.000  C
  C62      1.0000 0.53040  0.74270  0.09300  Biso   1.000  C
  C63      1.0000 0.96960  0.74270  0.59300  Biso   1.000  C
  C64      1.0000 0.03040  0.25730  0.40700  Biso   1.000  C
