data_image0
_cell_length_a       26.241
_cell_length_b       5.568
_cell_length_c       8.091
_cell_angle_alpha    90
_cell_angle_beta     98.17
_cell_angle_gamma    90

_symmetry_space_group_name_H-M    "P 1"
_symmetry_int_tables_number       1

loop_
  _symmetry_equiv_pos_as_xyz
  'x, y, z'

loop_
  _atom_site_label
  _atom_site_occupancy
  _atom_site_fract_x
  _atom_site_fract_y
  _atom_site_fract_z
  _atom_site_thermal_displace_type
  _atom_site_B_iso_or_equiv
  _atom_site_type_symbol
  C1       1.0000 0.02760  0.00700  0.04090  Biso   1.000  C
  C2       1.0000 0.97240  0.99300  0.95910  Biso   1.000  C
  C3       1.0000 0.97240  0.50700  0.45910  Biso   1.000  C
  C4       1.0000 0.02760  0.49300  0.54090  Biso   1.000  C
  C5       1.0000 0.06200  0.82600  0.00660  Biso   1.000  C
  C6       1.0000 0.93800  0.17400  0.99340  Biso   1.000  C
  C7       1.0000 0.93800  0.32600  0.49340  Biso   1.000  C
  C8       1.0000 0.06200  0.67400  0.50660  Biso   1.000  C
  C9       1.0000 0.11170  0.82600  0.08490  Biso   1.000  C
  C10      1.0000 0.88830  0.17400  0.91510  Biso   1.000  C
  C11      1.0000 0.88830  0.32600  0.41510  Biso   1.000  C
  C12      1.0000 0.11170  0.67400  0.58490  Biso   1.000  C
  C13      1.0000 0.13210  0.00100  0.19530  Biso   1.000  C
  C14      1.0000 0.86790  0.99900  0.80470  Biso   1.000  C
  C15      1.0000 0.86790  0.50100  0.30470  Biso   1.000  C
  C16      1.0000 0.13210  0.49900  0.69530  Biso   1.000  C
  C17      1.0000 0.09820  0.17900  0.22140  Biso   1.000  C
  C18      1.0000 0.90180  0.82100  0.77860  Biso   1.000  C
  C19      1.0000 0.90180  0.67900  0.27860  Biso   1.000  C
  C20      1.0000 0.09820  0.32100  0.72140  Biso   1.000  C
  C21      1.0000 0.04560  0.17900  0.15290  Biso   1.000  C
  C22      1.0000 0.95440  0.82100  0.84710  Biso   1.000  C
  C23      1.0000 0.95440  0.67900  0.34710  Biso   1.000  C
  C24      1.0000 0.04560  0.32100  0.65290  Biso   1.000  C
  C25      1.0000 0.18750  0.99200  0.27290  Biso   1.000  C
  C26      1.0000 0.81250  0.00800  0.72710  Biso   1.000  C
  C27      1.0000 0.81250  0.49200  0.22710  Biso   1.000  C
  C28      1.0000 0.18750  0.50800  0.77290  Biso   1.000  C
  C29      1.0000 0.22200  0.81900  0.23990  Biso   1.000  C
  C30      1.0000 0.77800  0.18100  0.76010  Biso   1.000  C
  C31      1.0000 0.77800  0.31900  0.26010  Biso   1.000  C
  C32      1.0000 0.22200  0.68100  0.73990  Biso   1.000  C
  C33      1.0000 0.26960  0.82200  0.31880  Biso   1.000  C
  C34      1.0000 0.73040  0.17800  0.68120  Biso   1.000  C
  C35      1.0000 0.73040  0.32200  0.18120  Biso   1.000  C
  C36      1.0000 0.26960  0.67800  0.81880  Biso   1.000  C
  C37      1.0000 0.29100  0.00200  0.42530  Biso   1.000  C
  C38      1.0000 0.70900  0.99800  0.57470  Biso   1.000  C
  C39      1.0000 0.70900  0.50200  0.07470  Biso   1.000  C
  C40      1.0000 0.29100  0.49800  0.92530  Biso   1.000  C
  C41      1.0000 0.25690  0.17500  0.45630  Biso   1.000  C
  C42      1.0000 0.74310  0.82500  0.54370  Biso   1.000  C
  C43      1.0000 0.74310  0.67500  0.04370  Biso   1.000  C
  C44      1.0000 0.25690  0.32500  0.95630  Biso   1.000  C
  C45      1.0000 0.20510  0.17300  0.38280  Biso   1.000  C
  C46      1.0000 0.79490  0.82700  0.61720  Biso   1.000  C
  C47      1.0000 0.79490  0.67300  0.11720  Biso   1.000  C
  C48      1.0000 0.20510  0.32700  0.88280  Biso   1.000  C
  C49      1.0000 0.34430  0.00100  0.50740  Biso   1.000  C
  C50      1.0000 0.65570  0.99900  0.49260  Biso   1.000  C
  C51      1.0000 0.65570  0.50100  0.99260  Biso   1.000  C
  C52      1.0000 0.34430  0.49900  0.00740  Biso   1.000  C
  C53      1.0000 0.37810  0.82600  0.47520  Biso   1.000  C
  C54      1.0000 0.62190  0.17400  0.52480  Biso   1.000  C
  C55      1.0000 0.62190  0.32600  0.02480  Biso   1.000  C
  C56      1.0000 0.37810  0.67400  0.97520  Biso   1.000  C
  C57      1.0000 0.43200  0.82300  0.54480  Biso   1.000  C
  C58      1.0000 0.56800  0.17700  0.45520  Biso   1.000  C
  C59      1.0000 0.56800  0.32300  0.95520  Biso   1.000  C
  C60      1.0000 0.43200  0.67700  0.04480  Biso   1.000  C
  C61      1.0000 0.44880  0.00300  0.65600  Biso   1.000  C
  C62      1.0000 0.55120  0.99700  0.34400  Biso   1.000  C
  C63      1.0000 0.55120  0.50300  0.84400  Biso   1.000  C
  C64      1.0000 0.44880  0.49700  0.15600  Biso   1.000  C
  C65      1.0000 0.41490  0.17900  0.69510  Biso   1.000  C
  C66      1.0000 0.58510  0.82100  0.30490  Biso   1.000  C
  C67      1.0000 0.58510  0.67900  0.80490  Biso   1.000  C
  C68      1.0000 0.41490  0.32100  0.19510  Biso   1.000  C
  C69      1.0000 0.36610  0.18300  0.61920  Biso   1.000  C
  C70      1.0000 0.63390  0.81700  0.38080  Biso   1.000  C
  C71      1.0000 0.63390  0.68300  0.88080  Biso   1.000  C
  C72      1.0000 0.36610  0.31700  0.11920  Biso   1.000  C
  H1       1.0000 0.04962  0.68135  0.91996  Biso   1.000  H
  H2       1.0000 0.95038  0.31865  0.08004  Biso   1.000  H
  H3       1.0000 0.95038  0.18135  0.58004  Biso   1.000  H
  H4       1.0000 0.04962  0.81865  0.41996  Biso   1.000  H
  H5       1.0000 0.13593  0.67701  0.05592  Biso   1.000  H
  H6       1.0000 0.86407  0.32299  0.94408  Biso   1.000  H
  H7       1.0000 0.86407  0.17701  0.44408  Biso   1.000  H
  H8       1.0000 0.13593  0.82299  0.55592  Biso   1.000  H
  H9       1.0000 0.11036  0.32815  0.30502  Biso   1.000  H
  H10      1.0000 0.88964  0.67185  0.69498  Biso   1.000  H
  H11      1.0000 0.88964  0.82815  0.19498  Biso   1.000  H
  H12      1.0000 0.11036  0.17185  0.80502  Biso   1.000  H
  H13      1.0000 0.02189  0.32570  0.18715  Biso   1.000  H
  H14      1.0000 0.97811  0.67430  0.81285  Biso   1.000  H
  H15      1.0000 0.97811  0.82570  0.31285  Biso   1.000  H
  H16      1.0000 0.02189  0.17430  0.68715  Biso   1.000  H
  H17      1.0000 0.21008  0.67180  0.15449  Biso   1.000  H
  H18      1.0000 0.78992  0.32819  0.84552  Biso   1.000  H
  H19      1.0000 0.78992  0.17181  0.34552  Biso   1.000  H
  H20      1.0000 0.21008  0.82818  0.65447  Biso   1.000  H
  H21      1.0000 0.29443  0.67409  0.29165  Biso   1.000  H
  H22      1.0000 0.70556  0.32589  0.70837  Biso   1.000  H
  H23      1.0000 0.70556  0.17411  0.20837  Biso   1.000  H
  H24      1.0000 0.29444  0.82588  0.79161  Biso   1.000  H
  H25      1.0000 0.26890  0.32320  0.54092  Biso   1.000  H
  H26      1.0000 0.73110  0.67681  0.45908  Biso   1.000  H
  H27      1.0000 0.73110  0.82319  0.95908  Biso   1.000  H
  H28      1.0000 0.26890  0.17681  0.04092  Biso   1.000  H
  H29      1.0000 0.18015  0.31600  0.41490  Biso   1.000  H
  H30      1.0000 0.81985  0.68399  0.58511  Biso   1.000  H
  H31      1.0000 0.81985  0.81601  0.08511  Biso   1.000  H
  H32      1.0000 0.18015  0.18398  0.91489  Biso   1.000  H
  H33      1.0000 0.36548  0.67991  0.38950  Biso   1.000  H
  H34      1.0000 0.63453  0.32009  0.61051  Biso   1.000  H
  H35      1.0000 0.63453  0.17992  0.11052  Biso   1.000  H
  H36      1.0000 0.36547  0.82014  0.88953  Biso   1.000  H
  H37      1.0000 0.48897  0.00883  0.71371  Biso   1.000  H
  H38      1.0000 0.51103  0.99118  0.28636  Biso   1.000  H
  H39      1.0000 0.51102  0.50887  0.78638  Biso   1.000  H
  H40      1.0000 0.48897  0.49120  0.21367  Biso   1.000  H
  H41      1.0000 0.42847  0.32018  0.78384  Biso   1.000  H
  H42      1.0000 0.54306  0.31848  0.49019  Biso   1.000  H
  H43      1.0000 0.54308  0.18159  0.99022  Biso   1.000  H
  H44      1.0000 0.45688  0.81871  0.00988  Biso   1.000  H
  H45      1.0000 0.34160  0.33019  0.64920  Biso   1.000  H
  H46      1.0000 0.65840  0.66974  0.35089  Biso   1.000  H
  H47      1.0000 0.65840  0.83027  0.85091  Biso   1.000  H
  H48      1.0000 0.34160  0.16976  0.14911  Biso   1.000  H
  H49      1.0000 0.45685  0.68122  0.50977  Biso   1.000  H
  H50      1.0000 0.57151  0.67962  0.21639  Biso   1.000  H
  H51      1.0000 0.57150  0.82043  0.71639  Biso   1.000  H
  H52      1.0000 0.42849  0.17964  0.28366  Biso   1.000  H
