data_image0
_cell_length_a       5.8232
_cell_length_b       9.745
_cell_length_c       10.5824
_cell_angle_alpha    96.693
_cell_angle_beta     90
_cell_angle_gamma    90

_symmetry_space_group_name_H-M    "P 1"
_symmetry_int_tables_number       1

loop_
  _symmetry_equiv_pos_as_xyz
  'x, y, z'

loop_
  _atom_site_label
  _atom_site_occupancy
  _atom_site_fract_x
  _atom_site_fract_y
  _atom_site_fract_z
  _atom_site_thermal_displace_type
  _atom_site_B_iso_or_equiv
  _atom_site_type_symbol
  H1       1.0000 0.96257  0.19752  0.71463  Biso   1.000  H
  H2       1.0000 0.03743  0.80248  0.28537  Biso   1.000  H
  H3       1.0000 0.46257  0.80248  0.78537  Biso   1.000  H
  H4       1.0000 0.53743  0.19752  0.21463  Biso   1.000  H
  H5       1.0000 0.97001  0.63949  0.84844  Biso   1.000  H
  H6       1.0000 0.02999  0.36051  0.15156  Biso   1.000  H
  H7       1.0000 0.47001  0.36051  0.65156  Biso   1.000  H
  H8       1.0000 0.52999  0.63949  0.34844  Biso   1.000  H
  H9       1.0000 0.96925  0.44377  0.79028  Biso   1.000  H
  H10      1.0000 0.03075  0.55623  0.20972  Biso   1.000  H
  H11      1.0000 0.46925  0.55623  0.70972  Biso   1.000  H
  H12      1.0000 0.53075  0.44377  0.29028  Biso   1.000  H
  H13      1.0000 0.33740  0.95538  0.20817  Biso   1.000  H
  H14      1.0000 0.66260  0.04462  0.79183  Biso   1.000  H
  H15      1.0000 0.83740  0.04462  0.29183  Biso   1.000  H
  H16      1.0000 0.16260  0.95538  0.70817  Biso   1.000  H
  H17      1.0000 0.97021  0.88558  0.92519  Biso   1.000  H
  H18      1.0000 0.02979  0.11442  0.07481  Biso   1.000  H
  H19      1.0000 0.47021  0.11442  0.57481  Biso   1.000  H
  H20      1.0000 0.52979  0.88558  0.42519  Biso   1.000  H
  H21      1.0000 0.67578  0.98462  0.07897  Biso   1.000  H
  H22      1.0000 0.32422  0.01538  0.92103  Biso   1.000  H
  H23      1.0000 0.17578  0.01538  0.42103  Biso   1.000  H
  H24      1.0000 0.82422  0.98462  0.57897  Biso   1.000  H
  C1       1.0000 0.67378  0.58959  0.95639  Biso   1.000  C
  C2       1.0000 0.32622  0.41041  0.04361  Biso   1.000  C
  C3       1.0000 0.17378  0.41041  0.54361  Biso   1.000  C
  C4       1.0000 0.82622  0.58959  0.45639  Biso   1.000  C
  C5       1.0000 0.67163  0.44091  0.91040  Biso   1.000  C
  C6       1.0000 0.32837  0.55909  0.08960  Biso   1.000  C
  C7       1.0000 0.17163  0.55909  0.58960  Biso   1.000  C
  C8       1.0000 0.82837  0.44091  0.41040  Biso   1.000  C
  C9       1.0000 0.50239  0.64488  0.04485  Biso   1.000  C
  C10      1.0000 0.49761  0.35512  0.95515  Biso   1.000  C
  C11      1.0000 0.00239  0.35512  0.45515  Biso   1.000  C
  C12      1.0000 0.99761  0.64488  0.54485  Biso   1.000  C
  C13      1.0000 0.83360  0.38132  0.82484  Biso   1.000  C
  C14      1.0000 0.16640  0.61868  0.17516  Biso   1.000  C
  C15      1.0000 0.33360  0.61868  0.67516  Biso   1.000  C
  C16      1.0000 0.66640  0.38132  0.32484  Biso   1.000  C
  C17      1.0000 0.50459  0.78908  0.08943  Biso   1.000  C
  C18      1.0000 0.49541  0.21092  0.91057  Biso   1.000  C
  C19      1.0000 0.00459  0.21092  0.41057  Biso   1.000  C
  C20      1.0000 0.99541  0.78908  0.58943  Biso   1.000  C
  C21      1.0000 0.83722  0.67832  0.91534  Biso   1.000  C
  C22      1.0000 0.16278  0.32168  0.08466  Biso   1.000  C
  C23      1.0000 0.33722  0.32168  0.58466  Biso   1.000  C
  C24      1.0000 0.66278  0.67832  0.41534  Biso   1.000  C
  C25      1.0000 0.67647  0.87477  0.04511  Biso   1.000  C
  C26      1.0000 0.32353  0.12523  0.95489  Biso   1.000  C
  C27      1.0000 0.17647  0.12523  0.45489  Biso   1.000  C
  C28      1.0000 0.82353  0.87477  0.54511  Biso   1.000  C
  C29      1.0000 0.33455  0.84486  0.17649  Biso   1.000  C
  C30      1.0000 0.66545  0.15514  0.82351  Biso   1.000  C
  C31      1.0000 0.83455  0.15514  0.32351  Biso   1.000  C
  C32      1.0000 0.16545  0.84486  0.67649  Biso   1.000  C
  C33      1.0000 0.83834  0.82015  0.95962  Biso   1.000  C
  C34      1.0000 0.16166  0.17985  0.04038  Biso   1.000  C
  C35      1.0000 0.33834  0.17985  0.54038  Biso   1.000  C
  C36      1.0000 0.66166  0.82015  0.45962  Biso   1.000  C
  C37      1.0000 0.83029  0.23915  0.78103  Biso   1.000  C
  C38      1.0000 0.16971  0.76085  0.21897  Biso   1.000  C
  C39      1.0000 0.33029  0.76085  0.71897  Biso   1.000  C
  C40      1.0000 0.66971  0.23915  0.28103  Biso   1.000  C
