data_image0
_cell_length_a       4.535
_cell_length_b       13.49
_cell_length_c       20.4
_cell_angle_alpha    90
_cell_angle_beta     90
_cell_angle_gamma    97

_symmetry_space_group_name_H-M    "P 1"
_symmetry_int_tables_number       1

loop_
  _symmetry_equiv_pos_as_xyz
  'x, y, z'

loop_
  _atom_site_label
  _atom_site_occupancy
  _atom_site_fract_x
  _atom_site_fract_y
  _atom_site_fract_z
  _atom_site_thermal_displace_type
  _atom_site_B_iso_or_equiv
  _atom_site_type_symbol
  H1       1.0000 0.83190  0.96187  0.04100  Biso   1.000  H
  H2       1.0000 0.16810  0.03813  0.95900  Biso   1.000  H
  H3       1.0000 0.16810  0.53813  0.54100  Biso   1.000  H
  H4       1.0000 0.83190  0.46187  0.45900  Biso   1.000  H
  H5       1.0000 0.35409  0.53008  0.05366  Biso   1.000  H
  H6       1.0000 0.64591  0.46992  0.94634  Biso   1.000  H
  H7       1.0000 0.64591  0.96992  0.55366  Biso   1.000  H
  H8       1.0000 0.35409  0.03008  0.44634  Biso   1.000  H
  H9       1.0000 0.08025  0.57324  0.95859  Biso   1.000  H
  H10      1.0000 0.91975  0.42676  0.04141  Biso   1.000  H
  H11      1.0000 0.91975  0.92676  0.45859  Biso   1.000  H
  H12      1.0000 0.08025  0.07324  0.54141  Biso   1.000  H
  H13      1.0000 0.94886  0.69687  0.87663  Biso   1.000  H
  H14      1.0000 0.05114  0.30313  0.12337  Biso   1.000  H
  H15      1.0000 0.05114  0.80313  0.37663  Biso   1.000  H
  H16      1.0000 0.94886  0.19687  0.62337  Biso   1.000  H
  H17      1.0000 0.19852  0.87110  0.88204  Biso   1.000  H
  H18      1.0000 0.80148  0.12890  0.11796  Biso   1.000  H
  H19      1.0000 0.80148  0.62890  0.38204  Biso   1.000  H
  H20      1.0000 0.19852  0.37110  0.61796  Biso   1.000  H
  H21      1.0000 0.55857  0.92223  0.96721  Biso   1.000  H
  H22      1.0000 0.44143  0.07777  0.03279  Biso   1.000  H
  H23      1.0000 0.44143  0.57777  0.46721  Biso   1.000  H
  H24      1.0000 0.55857  0.42223  0.53279  Biso   1.000  H
  H25      1.0000 0.19028  0.00455  0.12799  Biso   1.000  H
  H26      1.0000 0.80972  0.99545  0.87201  Biso   1.000  H
  H27      1.0000 0.80972  0.49545  0.62799  Biso   1.000  H
  H28      1.0000 0.19028  0.50455  0.37201  Biso   1.000  H
  H29      1.0000 0.48159  0.95349  0.22373  Biso   1.000  H
  H30      1.0000 0.51841  0.04651  0.77627  Biso   1.000  H
  H31      1.0000 0.51841  0.54651  0.72373  Biso   1.000  H
  H32      1.0000 0.48159  0.45349  0.27627  Biso   1.000  H
  H33      1.0000 0.60026  0.82216  0.30032  Biso   1.000  H
  H34      1.0000 0.39974  0.17784  0.69968  Biso   1.000  H
  H35      1.0000 0.39974  0.67784  0.80032  Biso   1.000  H
  H36      1.0000 0.60026  0.32216  0.19968  Biso   1.000  H
  H37      1.0000 0.34724  0.65041  0.29176  Biso   1.000  H
  H38      1.0000 0.65276  0.34959  0.70824  Biso   1.000  H
  H39      1.0000 0.65276  0.84959  0.79176  Biso   1.000  H
  H40      1.0000 0.34724  0.15041  0.20824  Biso   1.000  H
  H41      1.0000 0.99321  0.52687  0.23620  Biso   1.000  H
  H42      1.0000 0.00679  0.47313  0.76380  Biso   1.000  H
  H43      1.0000 0.00679  0.97313  0.73620  Biso   1.000  H
  H44      1.0000 0.99321  0.02687  0.26380  Biso   1.000  H
  H45      1.0000 0.62821  0.48218  0.14882  Biso   1.000  H
  H46      1.0000 0.37179  0.51782  0.85118  Biso   1.000  H
  H47      1.0000 0.37179  0.01782  0.64882  Biso   1.000  H
  H48      1.0000 0.62821  0.98218  0.35118  Biso   1.000  H
  C1       1.0000 0.88280  0.90380  0.07470  Biso   1.000  C
  C2       1.0000 0.11720  0.09620  0.92530  Biso   1.000  C
  C3       1.0000 0.11720  0.59620  0.57470  Biso   1.000  C
  C4       1.0000 0.88280  0.40380  0.42530  Biso   1.000  C
  C5       1.0000 0.66430  0.63100  0.10630  Biso   1.000  C
  C6       1.0000 0.33570  0.36900  0.89370  Biso   1.000  C
  C7       1.0000 0.33570  0.86900  0.60630  Biso   1.000  C
  C8       1.0000 0.66430  0.13100  0.39370  Biso   1.000  C
  C9       1.0000 0.46410  0.60640  0.05750  Biso   1.000  C
  C10      1.0000 0.53590  0.39360  0.94250  Biso   1.000  C
  C11      1.0000 0.53590  0.89360  0.55750  Biso   1.000  C
  C12      1.0000 0.46410  0.10640  0.44250  Biso   1.000  C
  C13      1.0000 0.39220  0.67830  0.01130  Biso   1.000  C
  C14      1.0000 0.60780  0.32170  0.98870  Biso   1.000  C
  C15      1.0000 0.60780  0.82170  0.51130  Biso   1.000  C
  C16      1.0000 0.39220  0.17830  0.48870  Biso   1.000  C
  C17      1.0000 0.18440  0.65040  0.96020  Biso   1.000  C
  C18      1.0000 0.81560  0.34960  0.03980  Biso   1.000  C
  C19      1.0000 0.81560  0.84960  0.46020  Biso   1.000  C
  C20      1.0000 0.18440  0.15040  0.53980  Biso   1.000  C
  C21      1.0000 0.11240  0.71860  0.91470  Biso   1.000  C
  C22      1.0000 0.88760  0.28140  0.08530  Biso   1.000  C
  C23      1.0000 0.88760  0.78140  0.41470  Biso   1.000  C
  C24      1.0000 0.11240  0.21860  0.58530  Biso   1.000  C
  C25      1.0000 0.25220  0.81660  0.91830  Biso   1.000  C
  C26      1.0000 0.74780  0.18340  0.08170  Biso   1.000  C
  C27      1.0000 0.74780  0.68340  0.41830  Biso   1.000  C
  C28      1.0000 0.25220  0.31660  0.58170  Biso   1.000  C
  C29      1.0000 0.45400  0.84520  0.96630  Biso   1.000  C
  C30      1.0000 0.54600  0.15480  0.03370  Biso   1.000  C
  C31      1.0000 0.54600  0.65480  0.46630  Biso   1.000  C
  C32      1.0000 0.45400  0.34520  0.53370  Biso   1.000  C
  C33      1.0000 0.53140  0.77750  0.01480  Biso   1.000  C
  C34      1.0000 0.46860  0.22250  0.98520  Biso   1.000  C
  C35      1.0000 0.46860  0.72250  0.51480  Biso   1.000  C
  C36      1.0000 0.53140  0.27750  0.48520  Biso   1.000  C
  C37      1.0000 0.73970  0.80470  0.06660  Biso   1.000  C
  C38      1.0000 0.26030  0.19530  0.93340  Biso   1.000  C
  C39      1.0000 0.26030  0.69530  0.56660  Biso   1.000  C
  C40      1.0000 0.73970  0.30470  0.43340  Biso   1.000  C
  C41      1.0000 0.80700  0.73240  0.11120  Biso   1.000  C
  C42      1.0000 0.19300  0.26760  0.88880  Biso   1.000  C
  C43      1.0000 0.19300  0.76760  0.61120  Biso   1.000  C
  C44      1.0000 0.80700  0.23240  0.38880  Biso   1.000  C
  C45      1.0000 0.08230  0.92810  0.12310  Biso   1.000  C
  C46      1.0000 0.91770  0.07190  0.87690  Biso   1.000  C
  C47      1.0000 0.91770  0.57190  0.62310  Biso   1.000  C
  C48      1.0000 0.08230  0.42810  0.37690  Biso   1.000  C
  C49      1.0000 0.01570  0.75560  0.16240  Biso   1.000  C
  C50      1.0000 0.98430  0.24440  0.83760  Biso   1.000  C
  C51      1.0000 0.98430  0.74440  0.66240  Biso   1.000  C
  C52      1.0000 0.01570  0.25560  0.33760  Biso   1.000  C
  C53      1.0000 0.15970  0.85440  0.16910  Biso   1.000  C
  C54      1.0000 0.84030  0.14560  0.83090  Biso   1.000  C
  C55      1.0000 0.84030  0.64560  0.66910  Biso   1.000  C
  C56      1.0000 0.15970  0.35440  0.33090  Biso   1.000  C
  C57      1.0000 0.36870  0.87770  0.21980  Biso   1.000  C
  C58      1.0000 0.63130  0.12230  0.78020  Biso   1.000  C
  C59      1.0000 0.63130  0.62230  0.71980  Biso   1.000  C
  C60      1.0000 0.36870  0.37770  0.28020  Biso   1.000  C
  C61      1.0000 0.43380  0.80410  0.26220  Biso   1.000  C
  C62      1.0000 0.56620  0.19590  0.73780  Biso   1.000  C
  C63      1.0000 0.56620  0.69590  0.76220  Biso   1.000  C
  C64      1.0000 0.43380  0.30410  0.23780  Biso   1.000  C
  C65      1.0000 0.29390  0.70780  0.25770  Biso   1.000  C
  C66      1.0000 0.70610  0.29220  0.74230  Biso   1.000  C
  C67      1.0000 0.70610  0.79220  0.75770  Biso   1.000  C
  C68      1.0000 0.29390  0.20780  0.24230  Biso   1.000  C
  C69      1.0000 0.08570  0.68280  0.20780  Biso   1.000  C
  C70      1.0000 0.91430  0.31720  0.79220  Biso   1.000  C
  C71      1.0000 0.91430  0.81720  0.70780  Biso   1.000  C
  C72      1.0000 0.08570  0.18280  0.29220  Biso   1.000  C
  C73      1.0000 0.93810  0.58310  0.20130  Biso   1.000  C
  C74      1.0000 0.06190  0.41690  0.79870  Biso   1.000  C
  C75      1.0000 0.06190  0.91690  0.70130  Biso   1.000  C
  C76      1.0000 0.93810  0.08310  0.29870  Biso   1.000  C
  C77      1.0000 0.73970  0.55810  0.15350  Biso   1.000  C
  C78      1.0000 0.26030  0.44190  0.84650  Biso   1.000  C
  C79      1.0000 0.26030  0.94190  0.65350  Biso   1.000  C
  C80      1.0000 0.73970  0.05810  0.34650  Biso   1.000  C
