data_image0
_cell_length_a       5.22
_cell_length_b       11.7096
_cell_length_c       15.77
_cell_angle_alpha    103.544
_cell_angle_beta     90
_cell_angle_gamma    102.879

_symmetry_space_group_name_H-M    "P 1"
_symmetry_int_tables_number       1

loop_
  _symmetry_equiv_pos_as_xyz
  'x, y, z'

loop_
  _atom_site_label
  _atom_site_occupancy
  _atom_site_fract_x
  _atom_site_fract_y
  _atom_site_fract_z
  _atom_site_thermal_displace_type
  _atom_site_B_iso_or_equiv
  _atom_site_type_symbol
  C1       1.0000 0.96460  0.47920  0.83590  Biso   1.000  C
  C2       1.0000 0.03540  0.52080  0.16410  Biso   1.000  C
  C3       1.0000 0.48540  0.52080  0.66410  Biso   1.000  C
  C4       1.0000 0.51460  0.47920  0.33590  Biso   1.000  C
  C5       1.0000 0.33590  0.53180  0.94050  Biso   1.000  C
  C6       1.0000 0.66410  0.46820  0.05950  Biso   1.000  C
  C7       1.0000 0.80410  0.46820  0.55950  Biso   1.000  C
  C8       1.0000 0.19590  0.53180  0.44050  Biso   1.000  C
  C9       1.0000 0.28110  0.41620  0.95730  Biso   1.000  C
  C10      1.0000 0.71890  0.58380  0.04270  Biso   1.000  C
  C11      1.0000 0.86490  0.58380  0.54270  Biso   1.000  C
  C12      1.0000 0.13510  0.41620  0.45730  Biso   1.000  C
  C13      1.0000 0.44210  0.38020  0.01350  Biso   1.000  C
  C14      1.0000 0.55790  0.61980  0.98650  Biso   1.000  C
  C15      1.0000 0.06190  0.61980  0.48650  Biso   1.000  C
  C16      1.0000 0.93810  0.38020  0.51350  Biso   1.000  C
  C17      1.0000 0.38800  0.26400  0.02850  Biso   1.000  C
  C18      1.0000 0.61200  0.73600  0.97150  Biso   1.000  C
  C19      1.0000 0.12400  0.73600  0.47150  Biso   1.000  C
  C20      1.0000 0.87600  0.26400  0.52850  Biso   1.000  C
  C21      1.0000 0.53880  0.23160  0.08620  Biso   1.000  C
  C22      1.0000 0.46120  0.76840  0.91380  Biso   1.000  C
  C23      1.0000 0.30720  0.76840  0.41380  Biso   1.000  C
  C24      1.0000 0.69280  0.23160  0.58620  Biso   1.000  C
  C25      1.0000 0.47960  0.11320  0.09780  Biso   1.000  C
  C26      1.0000 0.52040  0.88680  0.90220  Biso   1.000  C
  C27      1.0000 0.36640  0.88680  0.40220  Biso   1.000  C
  C28      1.0000 0.63360  0.11320  0.59780  Biso   1.000  C
  C29      1.0000 0.63120  0.08040  0.15740  Biso   1.000  C
  C30      1.0000 0.36880  0.91960  0.84260  Biso   1.000  C
  C31      1.0000 0.55080  0.91960  0.34260  Biso   1.000  C
  C32      1.0000 0.44920  0.08040  0.65740  Biso   1.000  C
  C33      1.0000 0.91250  0.36500  0.84960  Biso   1.000  C
  C34      1.0000 0.08750  0.63500  0.15040  Biso   1.000  C
  C35      1.0000 0.54750  0.63500  0.65040  Biso   1.000  C
  C36      1.0000 0.45250  0.36500  0.34960  Biso   1.000  C
  C37      1.0000 0.05790  0.32980  0.90800  Biso   1.000  C
  C38      1.0000 0.94210  0.67020  0.09200  Biso   1.000  C
  C39      1.0000 0.72810  0.67020  0.59200  Biso   1.000  C
  C40      1.0000 0.27190  0.32980  0.40800  Biso   1.000  C
  C41      1.0000 0.00710  0.21420  0.92150  Biso   1.000  C
  C42      1.0000 0.99290  0.78580  0.07850  Biso   1.000  C
  C43      1.0000 0.79290  0.78580  0.57850  Biso   1.000  C
  C44      1.0000 0.20710  0.21420  0.42150  Biso   1.000  C
  C45      1.0000 0.16020  0.18040  0.97920  Biso   1.000  C
  C46      1.0000 0.83980  0.81960  0.02080  Biso   1.000  C
  C47      1.0000 0.97980  0.81960  0.52080  Biso   1.000  C
  C48      1.0000 0.02020  0.18040  0.47920  Biso   1.000  C
  C49      1.0000 0.85270  0.16740  0.20200  Biso   1.000  C
  C50      1.0000 0.14730  0.83260  0.79800  Biso   1.000  C
  C51      1.0000 0.68530  0.83260  0.29800  Biso   1.000  C
  C52      1.0000 0.31470  0.16740  0.70200  Biso   1.000  C
  C53      1.0000 0.91650  0.28100  0.18840  Biso   1.000  C
  C54      1.0000 0.08350  0.71900  0.81160  Biso   1.000  C
  C55      1.0000 0.63550  0.71900  0.31160  Biso   1.000  C
  C56      1.0000 0.36450  0.28100  0.68840  Biso   1.000  C
  C57      1.0000 0.75990  0.31780  0.13210  Biso   1.000  C
  C58      1.0000 0.24010  0.68220  0.86790  Biso   1.000  C
  C59      1.0000 0.44210  0.68220  0.36790  Biso   1.000  C
  C60      1.0000 0.55790  0.31780  0.63210  Biso   1.000  C
  C61      1.0000 0.18400  0.56600  0.88300  Biso   1.000  C
  C62      1.0000 0.81600  0.43400  0.11700  Biso   1.000  C
  C63      1.0000 0.61800  0.43400  0.61700  Biso   1.000  C
  C64      1.0000 0.38200  0.56600  0.38300  Biso   1.000  C
  H1       1.0000 0.16167  0.85287  0.11405  Biso   1.000  H
  H2       1.0000 0.25521  0.70202  0.18662  Biso   1.000  H
  H3       1.0000 0.16063  0.49958  0.21014  Biso   1.000  H
  H4       1.0000 0.09171  0.34274  0.22303  Biso   1.000  H
  H5       1.0000 0.89593  0.91164  0.01366  Biso   1.000  H
  H6       1.0000 0.31423  0.04596  0.06183  Biso   1.000  H
  H7       1.0000 0.58532  0.98901  0.16678  Biso   1.000  H
  H8       1.0000 0.97728  0.14250  0.24678  Biso   1.000  H
  H9       1.0000 0.68577  0.95404  0.93817  Biso   1.000  H
  H10      1.0000 0.02272  0.85750  0.75322  Biso   1.000  H
  H11      1.0000 0.10407  0.08836  0.98634  Biso   1.000  H
  H12      1.0000 0.41468  0.01099  0.83322  Biso   1.000  H
  H13      1.0000 0.83937  0.50042  0.78986  Biso   1.000  H
  H14      1.0000 0.74479  0.29798  0.81338  Biso   1.000  H
  H15      1.0000 0.90829  0.65726  0.77697  Biso   1.000  H
  H16      1.0000 0.83833  0.14713  0.88595  Biso   1.000  H
  H17      1.0000 0.01567  0.91163  0.51364  Biso   1.000  H
  H18      1.0000 0.55318  0.29798  0.31338  Biso   1.000  H
  H19      1.0000 0.30881  0.14713  0.38595  Biso   1.000  H
  H20      1.0000 0.26828  0.95404  0.43817  Biso   1.000  H
  H21      1.0000 0.66104  0.50042  0.28986  Biso   1.000  H
  H22      1.0000 0.59629  0.01099  0.33322  Biso   1.000  H
  H23      1.0000 0.74897  0.65726  0.27696  Biso   1.000  H
  H24      1.0000 0.83479  0.85750  0.25322  Biso   1.000  H
  H25      1.0000 0.33896  0.49958  0.71014  Biso   1.000  H
  H26      1.0000 0.44682  0.70202  0.68662  Biso   1.000  H
  H27      1.0000 0.69119  0.85287  0.61405  Biso   1.000  H
  H28      1.0000 0.25103  0.34274  0.72304  Biso   1.000  H
  H29      1.0000 0.73172  0.04596  0.56183  Biso   1.000  H
  H30      1.0000 0.16521  0.14250  0.74678  Biso   1.000  H
  H31      1.0000 0.98433  0.08837  0.48636  Biso   1.000  H
  H32      1.0000 0.40371  0.98901  0.66678  Biso   1.000  H
