data_image0
_cell_length_a       9.74
_cell_length_b       9.74
_cell_length_c       17.7
_cell_angle_alpha    85.4
_cell_angle_beta     85.4
_cell_angle_gamma    69.9

_symmetry_space_group_name_H-M    "P 1"
_symmetry_int_tables_number       1

loop_
  _symmetry_equiv_pos_as_xyz
  'x, y, z'

loop_
  _atom_site_label
  _atom_site_occupancy
  _atom_site_fract_x
  _atom_site_fract_y
  _atom_site_fract_z
  _atom_site_thermal_displace_type
  _atom_site_B_iso_or_equiv
  _atom_site_type_symbol
  H1       1.0000 0.61630  0.98694  0.03839  Biso   1.000  H
  H2       1.0000 0.38370  0.01306  0.96161  Biso   1.000  H
  H3       1.0000 0.64434  0.01878  0.17166  Biso   1.000  H
  H4       1.0000 0.35566  0.98122  0.82834  Biso   1.000  H
  H5       1.0000 0.93372  0.56895  0.19503  Biso   1.000  H
  H6       1.0000 0.06628  0.43105  0.80497  Biso   1.000  H
  H7       1.0000 0.90492  0.53706  0.06186  Biso   1.000  H
  H8       1.0000 0.09508  0.46294  0.93814  Biso   1.000  H
  H9       1.0000 0.74364  0.05213  0.26051  Biso   1.000  H
  H10      1.0000 0.25636  0.94787  0.73949  Biso   1.000  H
  H11      1.0000 0.77101  0.08407  0.39460  Biso   1.000  H
  H12      1.0000 0.22899  0.91593  0.60540  Biso   1.000  H
  H13      1.0000 0.85179  0.86635  0.48583  Biso   1.000  H
  H14      1.0000 0.14821  0.13365  0.51417  Biso   1.000  H
  H15      1.0000 0.90722  0.61575  0.44043  Biso   1.000  H
  H16      1.0000 0.09278  0.38425  0.55957  Biso   1.000  H
  H17      1.0000 0.87703  0.58364  0.30688  Biso   1.000  H
  H18      1.0000 0.12297  0.41636  0.69312  Biso   1.000  H
  H19      1.0000 0.78879  0.50595  0.97519  Biso   1.000  H
  H20      1.0000 0.21121  0.49405  0.02481  Biso   1.000  H
  H21      1.0000 0.76038  0.47386  0.84170  Biso   1.000  H
  H22      1.0000 0.23962  0.52614  0.15830  Biso   1.000  H
  H23      1.0000 0.66125  0.93843  0.79149  Biso   1.000  H
  H24      1.0000 0.33875  0.06157  0.20851  Biso   1.000  H
  H25      1.0000 0.68993  0.97002  0.92511  Biso   1.000  H
  H26      1.0000 0.31007  0.02998  0.07489  Biso   1.000  H
  H27      1.0000 0.80919  0.44993  0.73195  Biso   1.000  H
  H28      1.0000 0.19081  0.55007  0.26805  Biso   1.000  H
  H29      1.0000 0.77697  0.41766  0.59917  Biso   1.000  H
  H30      1.0000 0.22303  0.58234  0.40083  Biso   1.000  H
  H31      1.0000 0.64613  0.63410  0.51439  Biso   1.000  H
  H32      1.0000 0.35387  0.36590  0.48561  Biso   1.000  H
  H33      1.0000 0.54404  0.88215  0.56628  Biso   1.000  H
  H34      1.0000 0.45596  0.11785  0.43372  Biso   1.000  H
  H35      1.0000 0.57039  0.91425  0.70002  Biso   1.000  H
  H36      1.0000 0.42961  0.08575  0.29998  Biso   1.000  H
  H37      1.0000 0.99386  0.21187  0.02501  Biso   1.000  H
  H38      1.0000 0.00614  0.78813  0.97499  Biso   1.000  H
  H39      1.0000 0.02486  0.24501  0.15775  Biso   1.000  H
  H40      1.0000 0.97514  0.75499  0.84225  Biso   1.000  H
  H41      1.0000 0.55969  0.34572  0.20753  Biso   1.000  H
  H42      1.0000 0.44031  0.65428  0.79247  Biso   1.000  H
  H43      1.0000 0.52929  0.31235  0.07470  Biso   1.000  H
  H44      1.0000 0.47071  0.68765  0.92530  Biso   1.000  H
  H45      1.0000 0.04878  0.20781  0.26662  Biso   1.000  H
  H46      1.0000 0.95122  0.79219  0.73338  Biso   1.000  H
  H47      1.0000 0.07987  0.24444  0.39919  Biso   1.000  H
  H48      1.0000 0.92013  0.75556  0.60081  Biso   1.000  H
  H49      1.0000 0.86257  0.36781  0.48410  Biso   1.000  H
  H50      1.0000 0.13743  0.63219  0.51590  Biso   1.000  H
  H51      1.0000 0.61272  0.46129  0.43286  Biso   1.000  H
  H52      1.0000 0.38728  0.53871  0.56714  Biso   1.000  H
  H53      1.0000 0.58164  0.43127  0.29972  Biso   1.000  H
  H54      1.0000 0.41836  0.56873  0.70028  Biso   1.000  H
  H55      1.0000 0.51067  0.37424  0.96214  Biso   1.000  H
  H56      1.0000 0.48933  0.62576  0.03786  Biso   1.000  H
  H57      1.0000 0.47933  0.34082  0.82966  Biso   1.000  H
  H58      1.0000 0.52067  0.65918  0.17034  Biso   1.000  H
  H59      1.0000 0.93568  0.06821  0.80523  Biso   1.000  H
  H60      1.0000 0.06432  0.93179  0.19477  Biso   1.000  H
  H61      1.0000 0.96666  0.10185  0.93766  Biso   1.000  H
  H62      1.0000 0.03334  0.89815  0.06234  Biso   1.000  H
  H63      1.0000 0.45018  0.24698  0.74001  Biso   1.000  H
  H64      1.0000 0.54982  0.75302  0.25999  Biso   1.000  H
  H65      1.0000 0.41949  0.21505  0.60633  Biso   1.000  H
  H66      1.0000 0.58051  0.78495  0.39367  Biso   1.000  H
  H67      1.0000 0.63782  0.13190  0.51586  Biso   1.000  H
  H68      1.0000 0.36218  0.86810  0.48414  Biso   1.000  H
  H69      1.0000 0.88784  0.07955  0.56115  Biso   1.000  H
  H70      1.0000 0.11216  0.92045  0.43885  Biso   1.000  H
  H71      1.0000 0.91908  0.11393  0.69429  Biso   1.000  H
  H72      1.0000 0.08092  0.88607  0.30571  Biso   1.000  H
  C1       1.0000 0.75870  0.75970  0.04070  Biso   1.000  C
  C2       1.0000 0.24130  0.24030  0.95930  Biso   1.000  C
  C3       1.0000 0.68720  0.89540  0.07200  Biso   1.000  C
  C4       1.0000 0.31280  0.10460  0.92800  Biso   1.000  C
  C5       1.0000 0.70340  0.91360  0.14800  Biso   1.000  C
  C6       1.0000 0.29660  0.08640  0.85200  Biso   1.000  C
  C7       1.0000 0.79100  0.79620  0.19290  Biso   1.000  C
  C8       1.0000 0.20900  0.20380  0.80710  Biso   1.000  C
  C9       1.0000 0.86250  0.66050  0.16160  Biso   1.000  C
  C10      1.0000 0.13750  0.33950  0.83840  Biso   1.000  C
  C11      1.0000 0.84630  0.64230  0.08560  Biso   1.000  C
  C12      1.0000 0.15370  0.35770  0.91440  Biso   1.000  C
  C13      1.0000 0.80830  0.81570  0.27430  Biso   1.000  C
  C14      1.0000 0.19170  0.18430  0.72570  Biso   1.000  C
  C15      1.0000 0.77770  0.95630  0.29960  Biso   1.000  C
  C16      1.0000 0.22230  0.04370  0.70040  Biso   1.000  C
  C17      1.0000 0.79380  0.97440  0.37560  Biso   1.000  C
  C18      1.0000 0.20620  0.02560  0.62440  Biso   1.000  C
  C19      1.0000 0.84070  0.85210  0.42650  Biso   1.000  C
  C20      1.0000 0.15930  0.14790  0.57350  Biso   1.000  C
  C21      1.0000 0.87150  0.71150  0.40120  Biso   1.000  C
  C22      1.0000 0.12850  0.28850  0.59880  Biso   1.000  C
  C23      1.0000 0.85530  0.69330  0.32520  Biso   1.000  C
  C24      1.0000 0.14470  0.30670  0.67480  Biso   1.000  C
  C25      1.0000 0.74130  0.74030  0.95930  Biso   1.000  C
  C26      1.0000 0.25870  0.25970  0.04070  Biso   1.000  C
  C27      1.0000 0.76300  0.60060  0.93510  Biso   1.000  C
  C28      1.0000 0.23700  0.39940  0.06490  Biso   1.000  C
  C29      1.0000 0.74680  0.58240  0.85900  Biso   1.000  C
  C30      1.0000 0.25320  0.41760  0.14100  Biso   1.000  C
  C31      1.0000 0.70900  0.70380  0.80720  Biso   1.000  C
  C32      1.0000 0.29100  0.29620  0.19280  Biso   1.000  C
  C33      1.0000 0.68730  0.84350  0.83130  Biso   1.000  C
  C34      1.0000 0.31270  0.15650  0.16870  Biso   1.000  C
  C35      1.0000 0.70350  0.86170  0.90740  Biso   1.000  C
  C36      1.0000 0.29650  0.13830  0.09260  Biso   1.000  C
  C37      1.0000 0.69170  0.68430  0.72570  Biso   1.000  C
  C38      1.0000 0.30830  0.31570  0.27430  Biso   1.000  C
  C39      1.0000 0.74920  0.54500  0.69670  Biso   1.000  C
  C40      1.0000 0.25080  0.45500  0.30330  Biso   1.000  C
  C41      1.0000 0.73300  0.52680  0.62070  Biso   1.000  C
  C42      1.0000 0.26700  0.47320  0.37930  Biso   1.000  C
  C43      1.0000 0.65930  0.64790  0.57350  Biso   1.000  C
  C44      1.0000 0.34070  0.35210  0.42650  Biso   1.000  C
  C45      1.0000 0.60170  0.78730  0.60250  Biso   1.000  C
  C46      1.0000 0.39830  0.21270  0.39750  Biso   1.000  C
  C47      1.0000 0.61790  0.80550  0.67850  Biso   1.000  C
  C48      1.0000 0.38210  0.19450  0.32150  Biso   1.000  C
  C49      1.0000 0.75940  0.26000  0.04060  Biso   1.000  C
  C50      1.0000 0.24060  0.74000  0.95940  Biso   1.000  C
  C51      1.0000 0.89880  0.23920  0.06480  Biso   1.000  C
  C52      1.0000 0.10120  0.76080  0.93520  Biso   1.000  C
  C53      1.0000 0.91640  0.25800  0.14060  Biso   1.000  C
  C54      1.0000 0.08360  0.74200  0.85940  Biso   1.000  C
  C55      1.0000 0.79450  0.29750  0.19220  Biso   1.000  C
  C56      1.0000 0.20550  0.70250  0.80780  Biso   1.000  C
  C57      1.0000 0.65510  0.31830  0.16800  Biso   1.000  C
  C58      1.0000 0.34490  0.68170  0.83200  Biso   1.000  C
  C59      1.0000 0.63760  0.29960  0.09220  Biso   1.000  C
  C60      1.0000 0.36240  0.70040  0.90780  Biso   1.000  C
  C61      1.0000 0.81330  0.31750  0.27340  Biso   1.000  C
  C62      1.0000 0.18670  0.68250  0.72660  Biso   1.000  C
  C63      1.0000 0.95310  0.26590  0.30190  Biso   1.000  C
  C64      1.0000 0.04690  0.73410  0.69810  Biso   1.000  C
  C65      1.0000 0.97060  0.28460  0.37770  Biso   1.000  C
  C66      1.0000 0.02940  0.71540  0.62230  Biso   1.000  C
  C67      1.0000 0.84840  0.35500  0.42500  Biso   1.000  C
  C68      1.0000 0.15160  0.64500  0.57500  Biso   1.000  C
  C69      1.0000 0.70860  0.40660  0.39650  Biso   1.000  C
  C70      1.0000 0.29140  0.59340  0.60350  Biso   1.000  C
  C71      1.0000 0.69110  0.38790  0.32070  Biso   1.000  C
  C72      1.0000 0.30890  0.61210  0.67930  Biso   1.000  C
  C73      1.0000 0.74060  0.24000  0.95940  Biso   1.000  C
  C74      1.0000 0.25940  0.76000  0.04060  Biso   1.000  C
  C75      1.0000 0.60360  0.30540  0.92860  Biso   1.000  C
  C76      1.0000 0.39640  0.69460  0.07140  Biso   1.000  C
  C77      1.0000 0.58600  0.28660  0.85280  Biso   1.000  C
  C78      1.0000 0.41400  0.71340  0.14720  Biso   1.000  C
  C79      1.0000 0.70550  0.20250  0.80780  Biso   1.000  C
  C80      1.0000 0.29450  0.79750  0.19220  Biso   1.000  C
  C81      1.0000 0.84250  0.13710  0.83860  Biso   1.000  C
  C82      1.0000 0.15750  0.86290  0.16140  Biso   1.000  C
  C83      1.0000 0.86000  0.15580  0.91440  Biso   1.000  C
  C84      1.0000 0.14000  0.84420  0.08560  Biso   1.000  C
  C85      1.0000 0.68670  0.18250  0.72660  Biso   1.000  C
  C86      1.0000 0.31330  0.81750  0.27340  Biso   1.000  C
  C87      1.0000 0.54640  0.21180  0.70130  Biso   1.000  C
  C88      1.0000 0.45360  0.78820  0.29870  Biso   1.000  C
  C89      1.0000 0.52880  0.19300  0.62550  Biso   1.000  C
  C90      1.0000 0.47120  0.80700  0.37450  Biso   1.000  C
  C91      1.0000 0.65160  0.14500  0.57500  Biso   1.000  C
  C92      1.0000 0.34840  0.85500  0.42500  Biso   1.000  C
  C93      1.0000 0.79190  0.11570  0.60030  Biso   1.000  C
  C94      1.0000 0.20810  0.88430  0.39970  Biso   1.000  C
  C95      1.0000 0.80950  0.13450  0.67610  Biso   1.000  C
  C96      1.0000 0.19050  0.86550  0.32390  Biso   1.000  C
