data_image0
_cell_length_a       7.61
_cell_length_b       11.258
_cell_length_c       19.765
_cell_angle_alpha    90
_cell_angle_beta     90
_cell_angle_gamma    90

_symmetry_space_group_name_H-M    "P 1"
_symmetry_int_tables_number       1

loop_
  _symmetry_equiv_pos_as_xyz
  'x, y, z'

loop_
  _atom_site_label
  _atom_site_occupancy
  _atom_site_fract_x
  _atom_site_fract_y
  _atom_site_fract_z
  _atom_site_thermal_displace_type
  _atom_site_B_iso_or_equiv
  _atom_site_type_symbol
  H1       1.0000 0.80986  0.95607  0.72225  Biso   1.000  H
  H2       1.0000 0.19014  0.45607  0.27775  Biso   1.000  H
  H3       1.0000 0.30986  0.95607  0.77775  Biso   1.000  H
  H4       1.0000 0.69014  0.45607  0.22225  Biso   1.000  H
  H5       1.0000 0.62744  0.16288  0.53923  Biso   1.000  H
  H6       1.0000 0.37256  0.66288  0.46077  Biso   1.000  H
  H7       1.0000 0.12744  0.16288  0.96077  Biso   1.000  H
  H8       1.0000 0.87256  0.66288  0.03923  Biso   1.000  H
  H9       1.0000 0.74856  0.36490  0.53457  Biso   1.000  H
  H10      1.0000 0.25144  0.86490  0.46543  Biso   1.000  H
  H11      1.0000 0.24856  0.36490  0.96543  Biso   1.000  H
  H12      1.0000 0.75144  0.86490  0.03457  Biso   1.000  H
  H13      1.0000 0.86712  0.45828  0.63821  Biso   1.000  H
  H14      1.0000 0.13288  0.95828  0.36179  Biso   1.000  H
  H15      1.0000 0.36712  0.45828  0.86179  Biso   1.000  H
  H16      1.0000 0.63288  0.95828  0.13821  Biso   1.000  H
  H17      1.0000 0.87125  0.34593  0.74560  Biso   1.000  H
  H18      1.0000 0.12875  0.84593  0.25440  Biso   1.000  H
  H19      1.0000 0.37125  0.34593  0.75440  Biso   1.000  H
  H20      1.0000 0.62875  0.84593  0.24560  Biso   1.000  H
  H21      1.0000 0.81739  0.34590  0.92589  Biso   1.000  H
  H22      1.0000 0.18261  0.84590  0.07411  Biso   1.000  H
  H23      1.0000 0.31739  0.34590  0.57411  Biso   1.000  H
  H24      1.0000 0.68261  0.84590  0.42589  Biso   1.000  H
  H25      1.0000 0.74922  0.45347  0.03097  Biso   1.000  H
  H26      1.0000 0.25078  0.95347  0.96903  Biso   1.000  H
  H27      1.0000 0.24922  0.45347  0.46903  Biso   1.000  H
  H28      1.0000 0.75078  0.95347  0.53097  Biso   1.000  H
  H29      1.0000 0.57997  0.35532  0.12214  Biso   1.000  H
  H30      1.0000 0.42003  0.85532  0.87786  Biso   1.000  H
  H31      1.0000 0.07997  0.35532  0.37786  Biso   1.000  H
  H32      1.0000 0.92003  0.85532  0.62214  Biso   1.000  H
  H33      1.0000 0.47807  0.14912  0.10683  Biso   1.000  H
  H34      1.0000 0.52193  0.64912  0.89317  Biso   1.000  H
  H35      1.0000 0.97807  0.14912  0.39317  Biso   1.000  H
  H36      1.0000 0.02193  0.64912  0.60683  Biso   1.000  H
  H37      1.0000 0.54068  0.04098  0.00146  Biso   1.000  H
  H38      1.0000 0.45932  0.54098  0.99854  Biso   1.000  H
  H39      1.0000 0.04068  0.04098  0.49854  Biso   1.000  H
  H40      1.0000 0.95932  0.54098  0.50146  Biso   1.000  H
  H41      1.0000 0.68815  0.27682  0.82906  Biso   1.000  H
  H42      1.0000 0.31185  0.77682  0.17094  Biso   1.000  H
  H43      1.0000 0.18815  0.27682  0.67094  Biso   1.000  H
  H44      1.0000 0.81185  0.77682  0.32906  Biso   1.000  H
  H45      1.0000 0.74969  0.95071  0.93781  Biso   1.000  H
  H46      1.0000 0.25031  0.45071  0.06219  Biso   1.000  H
  H47      1.0000 0.24969  0.95071  0.56219  Biso   1.000  H
  H48      1.0000 0.75031  0.45071  0.43781  Biso   1.000  H
  H49      1.0000 0.97628  0.81515  0.92045  Biso   1.000  H
  H50      1.0000 0.02372  0.31515  0.07955  Biso   1.000  H
  H51      1.0000 0.47628  0.81515  0.57955  Biso   1.000  H
  H52      1.0000 0.52372  0.31515  0.42045  Biso   1.000  H
  H53      1.0000 0.04023  0.60214  0.92140  Biso   1.000  H
  H54      1.0000 0.95977  0.10214  0.07860  Biso   1.000  H
  H55      1.0000 0.54023  0.60214  0.57860  Biso   1.000  H
  H56      1.0000 0.45977  0.10214  0.42140  Biso   1.000  H
  H57      1.0000 0.91740  0.47078  0.83300  Biso   1.000  H
  H58      1.0000 0.08260  0.97078  0.16700  Biso   1.000  H
  H59      1.0000 0.41740  0.47078  0.66700  Biso   1.000  H
  H60      1.0000 0.58260  0.97078  0.33300  Biso   1.000  H
  H61      1.0000 0.72671  0.55693  0.74355  Biso   1.000  H
  H62      1.0000 0.27329  0.05693  0.25645  Biso   1.000  H
  H63      1.0000 0.22671  0.55693  0.75645  Biso   1.000  H
  H64      1.0000 0.77329  0.05693  0.24355  Biso   1.000  H
  H65      1.0000 0.66487  0.77014  0.74129  Biso   1.000  H
  H66      1.0000 0.33513  0.27014  0.25871  Biso   1.000  H
  H67      1.0000 0.16487  0.77014  0.75871  Biso   1.000  H
  H68      1.0000 0.83513  0.27014  0.24129  Biso   1.000  H
  H69      1.0000 0.62565  0.05137  0.64650  Biso   1.000  H
  H70      1.0000 0.37435  0.55137  0.35350  Biso   1.000  H
  H71      1.0000 0.12565  0.05137  0.85350  Biso   1.000  H
  H72      1.0000 0.87435  0.55137  0.14650  Biso   1.000  H
  C1       1.0000 0.78080  0.93870  0.83010  Biso   1.000  C
  C2       1.0000 0.21920  0.43870  0.16990  Biso   1.000  C
  C3       1.0000 0.28080  0.93870  0.66990  Biso   1.000  C
  C4       1.0000 0.71920  0.43870  0.33010  Biso   1.000  C
  C5       1.0000 0.88720  0.56550  0.83250  Biso   1.000  C
  C6       1.0000 0.11280  0.06550  0.16750  Biso   1.000  C
  C7       1.0000 0.38720  0.56550  0.66750  Biso   1.000  C
  C8       1.0000 0.61280  0.06550  0.33250  Biso   1.000  C
  C9       1.0000 0.78380  0.61330  0.78260  Biso   1.000  C
  C10      1.0000 0.21620  0.11330  0.21740  Biso   1.000  C
  C11      1.0000 0.28380  0.61330  0.71740  Biso   1.000  C
  C12      1.0000 0.71620  0.11330  0.28260  Biso   1.000  C
  C13      1.0000 0.74890  0.73430  0.78100  Biso   1.000  C
  C14      1.0000 0.25110  0.23430  0.21900  Biso   1.000  C
  C15      1.0000 0.24890  0.73430  0.71900  Biso   1.000  C
  C16      1.0000 0.75110  0.23430  0.28100  Biso   1.000  C
  C17      1.0000 0.74760  0.19150  0.70370  Biso   1.000  C
  C18      1.0000 0.25240  0.69150  0.29630  Biso   1.000  C
  C19      1.0000 0.24760  0.19150  0.79630  Biso   1.000  C
  C20      1.0000 0.75240  0.69150  0.20370  Biso   1.000  C
  C21      1.0000 0.68160  0.14040  0.64480  Biso   1.000  C
  C22      1.0000 0.31840  0.64040  0.35520  Biso   1.000  C
  C23      1.0000 0.18160  0.14040  0.85520  Biso   1.000  C
  C24      1.0000 0.81840  0.64040  0.14480  Biso   1.000  C
  C25      1.0000 0.68160  0.20340  0.58480  Biso   1.000  C
  C26      1.0000 0.31840  0.70340  0.41520  Biso   1.000  C
  C27      1.0000 0.18160  0.20340  0.91520  Biso   1.000  C
  C28      1.0000 0.81840  0.70340  0.08480  Biso   1.000  C
  C29      1.0000 0.74690  0.31650  0.58230  Biso   1.000  C
  C30      1.0000 0.25310  0.81650  0.41770  Biso   1.000  C
  C31      1.0000 0.24690  0.31650  0.91770  Biso   1.000  C
  C32      1.0000 0.75310  0.81650  0.08230  Biso   1.000  C
  C33      1.0000 0.81300  0.36870  0.64010  Biso   1.000  C
  C34      1.0000 0.18700  0.86870  0.35990  Biso   1.000  C
  C35      1.0000 0.31300  0.36870  0.85990  Biso   1.000  C
  C36      1.0000 0.68700  0.86870  0.14010  Biso   1.000  C
  C37      1.0000 0.81300  0.30630  0.70060  Biso   1.000  C
  C38      1.0000 0.18700  0.80630  0.29940  Biso   1.000  C
  C39      1.0000 0.31300  0.30630  0.79940  Biso   1.000  C
  C40      1.0000 0.68700  0.80630  0.20060  Biso   1.000  C
  C41      1.0000 0.68320  0.18520  0.95560  Biso   1.000  C
  C42      1.0000 0.31680  0.68520  0.04440  Biso   1.000  C
  C43      1.0000 0.18320  0.18520  0.54440  Biso   1.000  C
  C44      1.0000 0.81680  0.68520  0.45560  Biso   1.000  C
  C45      1.0000 0.77990  0.00190  0.76940  Biso   1.000  C
  C46      1.0000 0.22010  0.50190  0.23060  Biso   1.000  C
  C47      1.0000 0.27990  0.00190  0.73060  Biso   1.000  C
  C48      1.0000 0.72010  0.50190  0.26940  Biso   1.000  C
  C49      1.0000 0.74060  0.30230  0.96520  Biso   1.000  C
  C50      1.0000 0.25940  0.80230  0.03480  Biso   1.000  C
  C51      1.0000 0.24060  0.30230  0.53480  Biso   1.000  C
  C52      1.0000 0.75940  0.80230  0.46520  Biso   1.000  C
  C53      1.0000 0.70290  0.36250  0.02460  Biso   1.000  C
  C54      1.0000 0.29710  0.86250  0.97540  Biso   1.000  C
  C55      1.0000 0.20290  0.36250  0.47540  Biso   1.000  C
  C56      1.0000 0.79710  0.86250  0.52460  Biso   1.000  C
  C57      1.0000 0.60960  0.30780  0.07550  Biso   1.000  C
  C58      1.0000 0.39040  0.80780  0.92450  Biso   1.000  C
  C59      1.0000 0.10960  0.30780  0.42450  Biso   1.000  C
  C60      1.0000 0.89040  0.80780  0.57550  Biso   1.000  C
  C61      1.0000 0.55370  0.19240  0.06700  Biso   1.000  C
  C62      1.0000 0.44630  0.69240  0.93300  Biso   1.000  C
  C63      1.0000 0.05370  0.19240  0.43300  Biso   1.000  C
  C64      1.0000 0.94630  0.69240  0.56700  Biso   1.000  C
  C65      1.0000 0.59030  0.13110  0.00780  Biso   1.000  C
  C66      1.0000 0.40970  0.63110  0.99220  Biso   1.000  C
  C67      1.0000 0.09030  0.13110  0.49220  Biso   1.000  C
  C68      1.0000 0.90970  0.63110  0.50780  Biso   1.000  C
  C69      1.0000 0.74910  0.12430  0.76870  Biso   1.000  C
  C70      1.0000 0.25090  0.62430  0.23130  Biso   1.000  C
  C71      1.0000 0.24910  0.12430  0.73130  Biso   1.000  C
  C72      1.0000 0.75090  0.62430  0.26870  Biso   1.000  C
  C73      1.0000 0.71890  0.18240  0.82950  Biso   1.000  C
  C74      1.0000 0.28110  0.68240  0.17050  Biso   1.000  C
  C75      1.0000 0.21890  0.18240  0.67050  Biso   1.000  C
  C76      1.0000 0.78110  0.68240  0.32950  Biso   1.000  C
  C77      1.0000 0.71930  0.12180  0.89110  Biso   1.000  C
  C78      1.0000 0.28070  0.62180  0.10890  Biso   1.000  C
  C79      1.0000 0.21930  0.12180  0.60890  Biso   1.000  C
  C80      1.0000 0.78070  0.62180  0.39110  Biso   1.000  C
  C81      1.0000 0.75000  0.00000  0.89040  Biso   1.000  C
  C82      1.0000 0.25000  0.50000  0.10960  Biso   1.000  C
  C83      1.0000 0.25000  0.00000  0.60960  Biso   1.000  C
  C84      1.0000 0.75000  0.50000  0.39040  Biso   1.000  C
  C85      1.0000 0.81720  0.80910  0.83100  Biso   1.000  C
  C86      1.0000 0.18280  0.30910  0.16900  Biso   1.000  C
  C87      1.0000 0.31720  0.80910  0.66900  Biso   1.000  C
  C88      1.0000 0.68280  0.30910  0.33100  Biso   1.000  C
  C89      1.0000 0.91910  0.75890  0.88140  Biso   1.000  C
  C90      1.0000 0.08090  0.25890  0.11860  Biso   1.000  C
  C91      1.0000 0.41910  0.75890  0.61860  Biso   1.000  C
  C92      1.0000 0.58090  0.25890  0.38140  Biso   1.000  C
  C93      1.0000 0.95510  0.63840  0.88210  Biso   1.000  C
  C94      1.0000 0.04490  0.13840  0.11790  Biso   1.000  C
  C95      1.0000 0.45510  0.63840  0.61790  Biso   1.000  C
  C96      1.0000 0.54490  0.13840  0.38210  Biso   1.000  C
