data_image0
_cell_length_a       5.64
_cell_length_b       8.12
_cell_length_c       9.47
_cell_angle_alpha    95.4
_cell_angle_beta     90
_cell_angle_gamma    90

_symmetry_space_group_name_H-M    "P 1"
_symmetry_int_tables_number       1

loop_
  _symmetry_equiv_pos_as_xyz
  'x, y, z'

loop_
  _atom_site_label
  _atom_site_occupancy
  _atom_site_fract_x
  _atom_site_fract_y
  _atom_site_fract_z
  _atom_site_thermal_displace_type
  _atom_site_B_iso_or_equiv
  _atom_site_type_symbol
  H1       1.0000 0.68258  0.08848  0.86389  Biso   1.000  H
  H2       1.0000 0.31742  0.91152  0.13611  Biso   1.000  H
  H3       1.0000 0.18258  0.41152  0.13611  Biso   1.000  H
  H4       1.0000 0.81742  0.58848  0.86389  Biso   1.000  H
  H5       1.0000 0.68701  0.97026  0.61688  Biso   1.000  H
  H6       1.0000 0.31299  0.02974  0.38312  Biso   1.000  H
  H7       1.0000 0.18701  0.52974  0.38312  Biso   1.000  H
  H8       1.0000 0.81299  0.47026  0.61688  Biso   1.000  H
  H9       1.0000 0.00761  0.77513  0.52923  Biso   1.000  H
  H10      1.0000 0.99239  0.22487  0.47077  Biso   1.000  H
  H11      1.0000 0.50761  0.72487  0.47077  Biso   1.000  H
  H12      1.0000 0.49239  0.27513  0.52923  Biso   1.000  H
  H13      1.0000 0.32184  0.70458  0.69817  Biso   1.000  H
  H14      1.0000 0.67816  0.29542  0.30183  Biso   1.000  H
  H15      1.0000 0.82184  0.79542  0.30183  Biso   1.000  H
  H16      1.0000 0.17816  0.20458  0.69817  Biso   1.000  H
  H17      1.0000 0.31999  0.82406  0.94307  Biso   1.000  H
  H18      1.0000 0.68001  0.17594  0.05693  Biso   1.000  H
  H19      1.0000 0.81999  0.67594  0.05693  Biso   1.000  H
  H20      1.0000 0.18001  0.32406  0.94307  Biso   1.000  H
  C1       1.0000 0.00070  0.96430  0.92360  Biso   1.000  C
  C2       1.0000 0.99930  0.03570  0.07640  Biso   1.000  C
  C3       1.0000 0.50070  0.53570  0.07640  Biso   1.000  C
  C4       1.0000 0.49930  0.46430  0.92360  Biso   1.000  C
  C5       1.0000 0.82620  0.00420  0.83100  Biso   1.000  C
  C6       1.0000 0.17380  0.99580  0.16900  Biso   1.000  C
  C7       1.0000 0.32620  0.49580  0.16900  Biso   1.000  C
  C8       1.0000 0.67380  0.50420  0.83100  Biso   1.000  C
  C9       1.0000 0.82770  0.93520  0.68700  Biso   1.000  C
  C10      1.0000 0.17230  0.06480  0.31300  Biso   1.000  C
  C11      1.0000 0.32770  0.56480  0.31300  Biso   1.000  C
  C12      1.0000 0.67230  0.43520  0.68700  Biso   1.000  C
  C13      1.0000 0.00400  0.82810  0.63930  Biso   1.000  C
  C14      1.0000 0.99600  0.17190  0.36070  Biso   1.000  C
  C15      1.0000 0.50400  0.67190  0.36070  Biso   1.000  C
  C16      1.0000 0.49600  0.32810  0.63930  Biso   1.000  C
  C17      1.0000 0.17950  0.78970  0.73280  Biso   1.000  C
  C18      1.0000 0.82050  0.21030  0.26720  Biso   1.000  C
  C19      1.0000 0.67950  0.71030  0.26720  Biso   1.000  C
  C20      1.0000 0.32050  0.28970  0.73280  Biso   1.000  C
  C21      1.0000 0.17700  0.85840  0.87470  Biso   1.000  C
  C22      1.0000 0.82300  0.14160  0.12530  Biso   1.000  C
  C23      1.0000 0.67700  0.64160  0.12530  Biso   1.000  C
  C24      1.0000 0.32300  0.35840  0.87470  Biso   1.000  C
