data_image0
_cell_length_a       7.803
_cell_length_b       10.871
_cell_length_c       11.814
_cell_angle_alpha    91.41
_cell_angle_beta     90
_cell_angle_gamma    90

_symmetry_space_group_name_H-M    "P 1"
_symmetry_int_tables_number       1

loop_
  _symmetry_equiv_pos_as_xyz
  'x, y, z'

loop_
  _atom_site_label
  _atom_site_occupancy
  _atom_site_fract_x
  _atom_site_fract_y
  _atom_site_fract_z
  _atom_site_thermal_displace_type
  _atom_site_B_iso_or_equiv
  _atom_site_type_symbol
  H1       1.0000 0.46629  0.27934  0.66947  Biso   1.000  H
  H2       1.0000 0.96629  0.72066  0.33053  Biso   1.000  H
  H3       1.0000 0.48783  0.46904  0.78583  Biso   1.000  H
  H4       1.0000 0.98783  0.53096  0.21417  Biso   1.000  H
  H5       1.0000 0.33756  0.48845  0.96753  Biso   1.000  H
  H6       1.0000 0.83756  0.51155  0.03247  Biso   1.000  H
  H7       1.0000 0.17014  0.39219  0.11927  Biso   1.000  H
  H8       1.0000 0.67014  0.60781  0.88073  Biso   1.000  H
  H9       1.0000 0.02692  0.20971  0.19423  Biso   1.000  H
  H10      1.0000 0.52692  0.79029  0.80577  Biso   1.000  H
  H11      1.0000 0.02150  0.01706  0.08661  Biso   1.000  H
  H12      1.0000 0.52150  0.98294  0.91339  Biso   1.000  H
  H13      1.0000 0.05482  0.85953  0.00865  Biso   1.000  H
  H14      1.0000 0.55482  0.14047  0.99135  Biso   1.000  H
  H15      1.0000 0.06031  0.66769  0.89908  Biso   1.000  H
  H16      1.0000 0.56031  0.33231  0.10092  Biso   1.000  H
  H17      1.0000 0.16669  0.65908  0.70477  Biso   1.000  H
  H18      1.0000 0.66669  0.34092  0.29523  Biso   1.000  H
  H19      1.0000 0.42329  0.63971  0.67091  Biso   1.000  H
  H20      1.0000 0.92329  0.36029  0.32909  Biso   1.000  H
  H21      1.0000 0.50438  0.45115  0.56520  Biso   1.000  H
  H22      1.0000 0.00438  0.54885  0.43480  Biso   1.000  H
  H23      1.0000 0.46873  0.43764  0.36002  Biso   1.000  H
  H24      1.0000 0.96873  0.56236  0.63998  Biso   1.000  H
  H25      1.0000 0.40843  0.53885  0.17965  Biso   1.000  H
  H26      1.0000 0.90843  0.46115  0.82035  Biso   1.000  H
  H27      1.0000 0.33007  0.72386  0.07738  Biso   1.000  H
  H28      1.0000 0.83007  0.27614  0.92262  Biso   1.000  H
  H29      1.0000 0.28405  0.91857  0.17850  Biso   1.000  H
  H30      1.0000 0.78405  0.08143  0.82150  Biso   1.000  H
  H31      1.0000 0.31506  0.07551  0.26238  Biso   1.000  H
  H32      1.0000 0.81506  0.92449  0.73762  Biso   1.000  H
  H33      1.0000 0.26892  0.26927  0.36706  Biso   1.000  H
  H34      1.0000 0.76892  0.73073  0.63294  Biso   1.000  H
  H35      1.0000 0.24234  0.27365  0.57149  Biso   1.000  H
  H36      1.0000 0.74234  0.72635  0.42851  Biso   1.000  H
  C1       1.0000 0.39620  0.28590  0.74880  Biso   1.000  C
  C2       1.0000 0.89620  0.71410  0.25120  Biso   1.000  C
  C3       1.0000 0.41000  0.39350  0.81610  Biso   1.000  C
  C4       1.0000 0.91000  0.60650  0.18390  Biso   1.000  C
  C5       1.0000 0.33000  0.40310  0.91700  Biso   1.000  C
  C6       1.0000 0.83000  0.59690  0.08300  Biso   1.000  C
  C7       1.0000 0.16280  0.30650  0.06940  Biso   1.000  C
  C8       1.0000 0.66280  0.69350  0.93060  Biso   1.000  C
  C9       1.0000 0.08560  0.20650  0.11060  Biso   1.000  C
  C10      1.0000 0.58560  0.79350  0.88940  Biso   1.000  C
  C11      1.0000 0.08180  0.09610  0.04850  Biso   1.000  C
  C12      1.0000 0.58180  0.90390  0.95150  Biso   1.000  C
  C13      1.0000 0.10410  0.86100  0.92260  Biso   1.000  C
  C14      1.0000 0.60410  0.13900  0.07740  Biso   1.000  C
  C15      1.0000 0.10820  0.75100  0.86050  Biso   1.000  C
  C16      1.0000 0.60820  0.24900  0.13950  Biso   1.000  C
  C17      1.0000 0.16870  0.74570  0.75230  Biso   1.000  C
  C18      1.0000 0.66870  0.25430  0.24770  Biso   1.000  C
  C19      1.0000 0.40720  0.63650  0.57950  Biso   1.000  C
  C20      1.0000 0.90720  0.36350  0.42050  Biso   1.000  C
  C21      1.0000 0.45410  0.52920  0.51970  Biso   1.000  C
  C22      1.0000 0.95410  0.47080  0.48030  Biso   1.000  C
  C23      1.0000 0.43790  0.52260  0.40650  Biso   1.000  C
  C24      1.0000 0.93790  0.47740  0.59350  Biso   1.000  C
  C25      1.0000 0.37750  0.62440  0.22560  Biso   1.000  C
  C26      1.0000 0.87750  0.37560  0.77440  Biso   1.000  C
  C27      1.0000 0.33670  0.72590  0.16950  Biso   1.000  C
  C28      1.0000 0.83670  0.27410  0.83050  Biso   1.000  C
  C29      1.0000 0.30910  0.83720  0.22770  Biso   1.000  C
  C30      1.0000 0.80910  0.16280  0.77230  Biso   1.000  C
  C31      1.0000 0.30270  0.07320  0.35400  Biso   1.000  C
  C32      1.0000 0.80270  0.92680  0.64600  Biso   1.000  C
  C33      1.0000 0.28040  0.18450  0.41370  Biso   1.000  C
  C34      1.0000 0.78040  0.81550  0.58630  Biso   1.000  C
  C35      1.0000 0.26840  0.18690  0.52700  Biso   1.000  C
  C36      1.0000 0.76840  0.81310  0.47300  Biso   1.000  C
  C37      1.0000 0.23910  0.30260  0.96150  Biso   1.000  C
  C38      1.0000 0.73910  0.69740  0.03850  Biso   1.000  C
  C39      1.0000 0.15270  0.08610  0.94150  Biso   1.000  C
  C40      1.0000 0.65270  0.91390  0.05850  Biso   1.000  C
  C41      1.0000 0.15760  0.96880  0.87720  Biso   1.000  C
  C42      1.0000 0.65760  0.03120  0.12280  Biso   1.000  C
  C43      1.0000 0.22900  0.85260  0.69990  Biso   1.000  C
  C44      1.0000 0.72900  0.14740  0.30010  Biso   1.000  C
  C45      1.0000 0.28920  0.85100  0.58650  Biso   1.000  C
  C46      1.0000 0.78920  0.14900  0.41350  Biso   1.000  C
  C47      1.0000 0.34580  0.73820  0.52530  Biso   1.000  C
  C48      1.0000 0.84580  0.26180  0.47470  Biso   1.000  C
  C49      1.0000 0.38630  0.62500  0.34410  Biso   1.000  C
  C50      1.0000 0.88630  0.37500  0.65590  Biso   1.000  C
  C51      1.0000 0.31650  0.84610  0.34450  Biso   1.000  C
  C52      1.0000 0.81650  0.15390  0.65550  Biso   1.000  C
  C53      1.0000 0.30400  0.96350  0.40770  Biso   1.000  C
  C54      1.0000 0.80400  0.03650  0.59230  Biso   1.000  C
  C55      1.0000 0.27900  0.07790  0.59080  Biso   1.000  C
  C56      1.0000 0.77900  0.92210  0.40920  Biso   1.000  C
  C57      1.0000 0.26750  0.07790  0.71040  Biso   1.000  C
  C58      1.0000 0.76750  0.92210  0.28960  Biso   1.000  C
  C59      1.0000 0.29780  0.18880  0.78280  Biso   1.000  C
  C60      1.0000 0.79780  0.81120  0.21720  Biso   1.000  C
  C61      1.0000 0.22820  0.19240  0.89450  Biso   1.000  C
  C62      1.0000 0.72820  0.80760  0.10550  Biso   1.000  C
  C63      1.0000 0.21960  0.96770  0.76230  Biso   1.000  C
  C64      1.0000 0.71960  0.03230  0.23770  Biso   1.000  C
  C65      1.0000 0.34630  0.73690  0.40500  Biso   1.000  C
  C66      1.0000 0.84630  0.26310  0.59500  Biso   1.000  C
  C67      1.0000 0.29210  0.96260  0.52920  Biso   1.000  C
  C68      1.0000 0.79210  0.03740  0.47080  Biso   1.000  C
