data_image0
_cell_length_a       3.807
_cell_length_b       19.975
_cell_length_c       25.78
_cell_angle_alpha    96.55
_cell_angle_beta     90
_cell_angle_gamma    90

_symmetry_space_group_name_H-M    "P 1"
_symmetry_int_tables_number       1

loop_
  _symmetry_equiv_pos_as_xyz
  'x, y, z'

loop_
  _atom_site_label
  _atom_site_occupancy
  _atom_site_fract_x
  _atom_site_fract_y
  _atom_site_fract_z
  _atom_site_thermal_displace_type
  _atom_site_B_iso_or_equiv
  _atom_site_type_symbol
  C1       1.0000 0.21400  0.85480  0.12410  Biso   1.000  C
  C2       1.0000 0.78600  0.14520  0.87590  Biso   1.000  C
  C3       1.0000 0.71400  0.64520  0.87590  Biso   1.000  C
  C4       1.0000 0.28600  0.35480  0.12410  Biso   1.000  C
  C5       1.0000 0.21200  0.81000  0.08000  Biso   1.000  C
  C6       1.0000 0.78800  0.19000  0.92000  Biso   1.000  C
  C7       1.0000 0.71200  0.69000  0.92000  Biso   1.000  C
  C8       1.0000 0.28800  0.31000  0.08000  Biso   1.000  C
  C9       1.0000 0.08500  0.82690  0.03230  Biso   1.000  C
  C10      1.0000 0.91500  0.17310  0.96770  Biso   1.000  C
  C11      1.0000 0.58500  0.67310  0.96770  Biso   1.000  C
  C12      1.0000 0.41500  0.32690  0.03230  Biso   1.000  C
  C13      1.0000 0.94400  0.89010  0.02910  Biso   1.000  C
  C14      1.0000 0.05600  0.10990  0.97090  Biso   1.000  C
  C15      1.0000 0.44400  0.60990  0.97090  Biso   1.000  C
  C16      1.0000 0.55600  0.39010  0.02910  Biso   1.000  C
  C17      1.0000 0.94800  0.93870  0.07460  Biso   1.000  C
  C18      1.0000 0.05200  0.06130  0.92540  Biso   1.000  C
  C19      1.0000 0.44800  0.56130  0.92540  Biso   1.000  C
  C20      1.0000 0.55200  0.43870  0.07460  Biso   1.000  C
  C21      1.0000 0.80700  0.00430  0.07190  Biso   1.000  C
  C22      1.0000 0.19300  0.99570  0.92810  Biso   1.000  C
  C23      1.0000 0.30700  0.49570  0.92810  Biso   1.000  C
  C24      1.0000 0.69300  0.50430  0.07190  Biso   1.000  C
  C25      1.0000 0.81600  0.05230  0.11500  Biso   1.000  C
  C26      1.0000 0.18400  0.94770  0.88500  Biso   1.000  C
  C27      1.0000 0.31600  0.44770  0.88500  Biso   1.000  C
  C28      1.0000 0.68400  0.55230  0.11500  Biso   1.000  C
  C29      1.0000 0.67400  0.12050  0.11170  Biso   1.000  C
  C30      1.0000 0.32600  0.87950  0.88830  Biso   1.000  C
  C31      1.0000 0.17400  0.37950  0.88830  Biso   1.000  C
  C32      1.0000 0.82600  0.62050  0.11170  Biso   1.000  C
  C33      1.0000 0.67900  0.16710  0.15400  Biso   1.000  C
  C34      1.0000 0.32100  0.83290  0.84600  Biso   1.000  C
  C35      1.0000 0.17900  0.33290  0.84600  Biso   1.000  C
  C36      1.0000 0.82100  0.66710  0.15400  Biso   1.000  C
  C37      1.0000 0.81000  0.15370  0.20360  Biso   1.000  C
  C38      1.0000 0.19000  0.84630  0.79640  Biso   1.000  C
  C39      1.0000 0.31000  0.34630  0.79640  Biso   1.000  C
  C40      1.0000 0.69000  0.65370  0.20360  Biso   1.000  C
  C41      1.0000 0.83600  0.20200  0.24740  Biso   1.000  C
  C42      1.0000 0.16400  0.79800  0.75260  Biso   1.000  C
  C43      1.0000 0.33600  0.29800  0.75260  Biso   1.000  C
  C44      1.0000 0.66400  0.70200  0.24740  Biso   1.000  C
  C45      1.0000 0.75200  0.27390  0.24220  Biso   1.000  C
  C46      1.0000 0.24800  0.72610  0.75780  Biso   1.000  C
  C47      1.0000 0.25200  0.22610  0.75780  Biso   1.000  C
  C48      1.0000 0.74800  0.77390  0.24220  Biso   1.000  C
  C49      1.0000 0.80300  0.32110  0.28380  Biso   1.000  C
  C50      1.0000 0.19700  0.67890  0.71620  Biso   1.000  C
  C51      1.0000 0.30300  0.17890  0.71620  Biso   1.000  C
  C52      1.0000 0.69700  0.82110  0.28380  Biso   1.000  C
  C53      1.0000 0.93000  0.30620  0.33180  Biso   1.000  C
  C54      1.0000 0.07000  0.69380  0.66820  Biso   1.000  C
  C55      1.0000 0.43000  0.19380  0.66820  Biso   1.000  C
  C56      1.0000 0.57000  0.80620  0.33180  Biso   1.000  C
  C57      1.0000 0.00100  0.35700  0.37250  Biso   1.000  C
  C58      1.0000 0.99900  0.64300  0.62750  Biso   1.000  C
  C59      1.0000 0.50100  0.14300  0.62750  Biso   1.000  C
  C60      1.0000 0.49900  0.85700  0.37250  Biso   1.000  C
  C61      1.0000 0.14100  0.34080  0.41830  Biso   1.000  C
  C62      1.0000 0.85900  0.65920  0.58170  Biso   1.000  C
  C63      1.0000 0.64100  0.15920  0.58170  Biso   1.000  C
  C64      1.0000 0.35900  0.84080  0.41830  Biso   1.000  C
  C65      1.0000 0.20400  0.27320  0.42750  Biso   1.000  C
  C66      1.0000 0.79600  0.72680  0.57250  Biso   1.000  C
  C67      1.0000 0.70400  0.22680  0.57250  Biso   1.000  C
  C68      1.0000 0.29600  0.77320  0.42750  Biso   1.000  C
  C69      1.0000 0.12500  0.22180  0.38780  Biso   1.000  C
  C70      1.0000 0.87500  0.77820  0.61220  Biso   1.000  C
  C71      1.0000 0.62500  0.27820  0.61220  Biso   1.000  C
  C72      1.0000 0.37500  0.72180  0.38780  Biso   1.000  C
  C73      1.0000 0.14500  0.14990  0.39770  Biso   1.000  C
  C74      1.0000 0.85500  0.85010  0.60230  Biso   1.000  C
  C75      1.0000 0.64500  0.35010  0.60230  Biso   1.000  C
  C76      1.0000 0.35500  0.64990  0.39770  Biso   1.000  C
  C77      1.0000 0.21900  0.13280  0.44740  Biso   1.000  C
  C78      1.0000 0.78100  0.86720  0.55260  Biso   1.000  C
  C79      1.0000 0.71900  0.36720  0.55260  Biso   1.000  C
  C80      1.0000 0.28100  0.63280  0.44740  Biso   1.000  C
  C81      1.0000 0.18300  0.06650  0.45860  Biso   1.000  C
  C82      1.0000 0.81700  0.93350  0.54140  Biso   1.000  C
  C83      1.0000 0.68300  0.43350  0.54140  Biso   1.000  C
  C84      1.0000 0.31700  0.56650  0.45860  Biso   1.000  C
  C85      1.0000 0.06200  0.01880  0.41900  Biso   1.000  C
  C86      1.0000 0.93800  0.98120  0.58100  Biso   1.000  C
  C87      1.0000 0.56200  0.48120  0.58100  Biso   1.000  C
  C88      1.0000 0.43800  0.51880  0.41900  Biso   1.000  C
  C89      1.0000 0.00400  0.03370  0.36890  Biso   1.000  C
  C90      1.0000 0.99600  0.96630  0.63110  Biso   1.000  C
  C91      1.0000 0.50400  0.46630  0.63110  Biso   1.000  C
  C92      1.0000 0.49600  0.53370  0.36890  Biso   1.000  C
  C93      1.0000 0.07000  0.09980  0.35560  Biso   1.000  C
  C94      1.0000 0.93000  0.90020  0.64440  Biso   1.000  C
  C95      1.0000 0.57000  0.40020  0.64440  Biso   1.000  C
  C96      1.0000 0.43000  0.59980  0.35560  Biso   1.000  C
  C97      1.0000 0.01800  0.11660  0.30310  Biso   1.000  C
  C98      1.0000 0.98200  0.88340  0.69690  Biso   1.000  C
  C99      1.0000 0.51800  0.38340  0.69690  Biso   1.000  C
  C100     1.0000 0.48200  0.61660  0.30310  Biso   1.000  C
  C101     1.0000 0.04400  0.06990  0.25780  Biso   1.000  C
  C102     1.0000 0.95600  0.93010  0.74220  Biso   1.000  C
  C103     1.0000 0.54400  0.43010  0.74220  Biso   1.000  C
  C104     1.0000 0.45600  0.56990  0.25780  Biso   1.000  C
  C105     1.0000 0.21200  0.00380  0.25920  Biso   1.000  C
  C106     1.0000 0.78800  0.99620  0.74080  Biso   1.000  C
  C107     1.0000 0.71200  0.49620  0.74080  Biso   1.000  C
  C108     1.0000 0.28800  0.50380  0.25920  Biso   1.000  C
  C109     1.0000 0.22000  0.95880  0.21670  Biso   1.000  C
  C110     1.0000 0.78000  0.04120  0.78330  Biso   1.000  C
  C111     1.0000 0.72000  0.54120  0.78330  Biso   1.000  C
  C112     1.0000 0.28000  0.45880  0.21670  Biso   1.000  C
  C113     1.0000 0.07800  0.97120  0.16840  Biso   1.000  C
  C114     1.0000 0.92200  0.02880  0.83160  Biso   1.000  C
  C115     1.0000 0.57800  0.52880  0.83160  Biso   1.000  C
  C116     1.0000 0.42200  0.47120  0.16840  Biso   1.000  C
  C117     1.0000 0.07300  0.92140  0.12270  Biso   1.000  C
  C118     1.0000 0.92700  0.07860  0.87730  Biso   1.000  C
  C119     1.0000 0.57300  0.57860  0.87730  Biso   1.000  C
  C120     1.0000 0.42700  0.42140  0.12270  Biso   1.000  C
  C121     1.0000 0.93800  0.03660  0.16420  Biso   1.000  C
  C122     1.0000 0.06200  0.96340  0.83580  Biso   1.000  C
  C123     1.0000 0.43800  0.46340  0.83580  Biso   1.000  C
  C124     1.0000 0.56200  0.53660  0.16420  Biso   1.000  C
  C125     1.0000 0.93300  0.08600  0.20890  Biso   1.000  C
  C126     1.0000 0.06700  0.91400  0.79110  Biso   1.000  C
  C127     1.0000 0.43300  0.41400  0.79110  Biso   1.000  C
  C128     1.0000 0.56700  0.58600  0.20890  Biso   1.000  C
  C129     1.0000 0.94300  0.18540  0.29640  Biso   1.000  C
  C130     1.0000 0.05700  0.81460  0.70360  Biso   1.000  C
  C131     1.0000 0.44300  0.31460  0.70360  Biso   1.000  C
  C132     1.0000 0.55700  0.68540  0.29640  Biso   1.000  C
  C133     1.0000 0.99700  0.23710  0.33980  Biso   1.000  C
  C134     1.0000 0.00300  0.76290  0.66020  Biso   1.000  C
  C135     1.0000 0.49700  0.26290  0.66020  Biso   1.000  C
  C136     1.0000 0.50300  0.73710  0.33980  Biso   1.000  C
  H1       1.0000 0.29286  0.17131  0.47869  Biso   1.000  H
  H2       1.0000 0.31580  0.26308  0.46454  Biso   1.000  H
  H3       1.0000 0.24118  0.05281  0.49733  Biso   1.000  H
  H4       1.0000 0.20415  0.38052  0.44948  Biso   1.000  H
  H5       1.0000 0.32199  0.83997  0.16013  Biso   1.000  H
  H6       1.0000 0.32317  0.75990  0.08171  Biso   1.000  H
  H7       1.0000 0.09402  0.78991  0.99785  Biso   1.000  H
  H8       1.0000 0.35424  0.91117  0.21939  Biso   1.000  H
  H9       1.0000 0.34380  0.99321  0.29465  Biso   1.000  H
  H10      1.0000 0.00562  0.96783  0.42782  Biso   1.000  H
  H11      1.0000 0.70003  0.01697  0.03508  Biso   1.000  H
  H12      1.0000 0.56821  0.13215  0.07452  Biso   1.000  H
  H13      1.0000 0.57338  0.21684  0.14997  Biso   1.000  H
  H14      1.0000 0.65513  0.28823  0.20545  Biso   1.000  H
  H15      1.0000 0.74093  0.37366  0.27975  Biso   1.000  H
  H16      1.0000 0.89995  0.99518  0.33986  Biso   1.000  H
  H17      1.0000 0.95420  0.40943  0.36668  Biso   1.000  H
  H18      1.0000 0.83861  0.90443  0.99272  Biso   1.000  H
  H19      1.0000 0.16139  0.09557  0.00728  Biso   1.000  H
  H20      1.0000 0.29997  0.98303  0.96492  Biso   1.000  H
  H21      1.0000 0.43179  0.86785  0.92548  Biso   1.000  H
  H22      1.0000 0.42662  0.78316  0.85003  Biso   1.000  H
  H23      1.0000 0.34487  0.71177  0.79455  Biso   1.000  H
  H24      1.0000 0.10005  0.00482  0.66014  Biso   1.000  H
  H25      1.0000 0.25907  0.62634  0.72025  Biso   1.000  H
  H26      1.0000 0.04580  0.59057  0.63332  Biso   1.000  H
  H27      1.0000 0.67801  0.16003  0.83987  Biso   1.000  H
  H28      1.0000 0.67683  0.24010  0.91829  Biso   1.000  H
  H29      1.0000 0.90598  0.21009  0.00215  Biso   1.000  H
  H30      1.0000 0.64576  0.08883  0.78061  Biso   1.000  H
  H31      1.0000 0.65620  0.00679  0.70535  Biso   1.000  H
  H32      1.0000 0.99438  0.03217  0.57218  Biso   1.000  H
  H33      1.0000 0.70714  0.82869  0.52131  Biso   1.000  H
  H34      1.0000 0.75882  0.94719  0.50267  Biso   1.000  H
  H35      1.0000 0.68420  0.73692  0.53546  Biso   1.000  H
  H36      1.0000 0.79585  0.61948  0.55052  Biso   1.000  H
  H37      1.0000 0.33861  0.59557  0.00728  Biso   1.000  H
  H38      1.0000 0.82199  0.66003  0.83987  Biso   1.000  H
  H39      1.0000 0.82317  0.74010  0.91829  Biso   1.000  H
  H40      1.0000 0.59402  0.71009  0.00215  Biso   1.000  H
  H41      1.0000 0.85424  0.58883  0.78061  Biso   1.000  H
  H42      1.0000 0.20003  0.48303  0.96492  Biso   1.000  H
  H43      1.0000 0.84380  0.50679  0.70535  Biso   1.000  H
  H44      1.0000 0.06821  0.36785  0.92548  Biso   1.000  H
  H45      1.0000 0.07338  0.28316  0.85003  Biso   1.000  H
  H46      1.0000 0.15513  0.21177  0.79455  Biso   1.000  H
  H47      1.0000 0.39995  0.50482  0.66014  Biso   1.000  H
  H48      1.0000 0.24093  0.12634  0.72025  Biso   1.000  H
  H49      1.0000 0.50562  0.53217  0.57218  Biso   1.000  H
  H50      1.0000 0.79286  0.32869  0.52131  Biso   1.000  H
  H51      1.0000 0.74118  0.44719  0.50267  Biso   1.000  H
  H52      1.0000 0.81580  0.23692  0.53546  Biso   1.000  H
  H53      1.0000 0.45420  0.09057  0.63332  Biso   1.000  H
  H54      1.0000 0.70415  0.11948  0.55052  Biso   1.000  H
  H55      1.0000 0.17801  0.33997  0.16013  Biso   1.000  H
  H56      1.0000 0.17683  0.25990  0.08171  Biso   1.000  H
  H57      1.0000 0.40598  0.28991  0.99785  Biso   1.000  H
  H58      1.0000 0.79997  0.51697  0.03508  Biso   1.000  H
  H59      1.0000 0.14576  0.41117  0.21939  Biso   1.000  H
  H60      1.0000 0.15620  0.49321  0.29465  Biso   1.000  H
  H61      1.0000 0.93179  0.63215  0.07452  Biso   1.000  H
  H62      1.0000 0.92662  0.71684  0.14997  Biso   1.000  H
  H63      1.0000 0.84487  0.78823  0.20545  Biso   1.000  H
  H64      1.0000 0.75907  0.87366  0.27975  Biso   1.000  H
  H65      1.0000 0.60005  0.49518  0.33986  Biso   1.000  H
  H66      1.0000 0.20714  0.67131  0.47869  Biso   1.000  H
  H67      1.0000 0.49438  0.46783  0.42782  Biso   1.000  H
  H68      1.0000 0.54580  0.90943  0.36668  Biso   1.000  H
  H69      1.0000 0.18420  0.76308  0.46454  Biso   1.000  H
  H70      1.0000 0.25882  0.55281  0.49733  Biso   1.000  H
  H71      1.0000 0.29585  0.88052  0.44948  Biso   1.000  H
  H72      1.0000 0.66139  0.40443  0.99272  Biso   1.000  H
