data_image0
_cell_length_a       11.2123
_cell_length_b       11.476
_cell_length_c       11.849
_cell_angle_alpha    73.029
_cell_angle_beta     72.368
_cell_angle_gamma    63.172

_symmetry_space_group_name_H-M    "P 1"
_symmetry_int_tables_number       1

loop_
  _symmetry_equiv_pos_as_xyz
  'x, y, z'

loop_
  _atom_site_label
  _atom_site_occupancy
  _atom_site_fract_x
  _atom_site_fract_y
  _atom_site_fract_z
  _atom_site_thermal_displace_type
  _atom_site_B_iso_or_equiv
  _atom_site_type_symbol
  H1       1.0000 0.84579  0.36166  0.27186  Biso   1.000  H
  H2       1.0000 0.15421  0.63834  0.72814  Biso   1.000  H
  H3       1.0000 0.76261  0.57194  0.33738  Biso   1.000  H
  H4       1.0000 0.23739  0.42806  0.66262  Biso   1.000  H
  H5       1.0000 0.89252  0.71370  0.26007  Biso   1.000  H
  H6       1.0000 0.10748  0.28630  0.73993  Biso   1.000  H
  H7       1.0000 0.09243  0.75306  0.13498  Biso   1.000  H
  H8       1.0000 0.90757  0.24694  0.86502  Biso   1.000  H
  H9       1.0000 0.31030  0.68351  0.98998  Biso   1.000  H
  H10      1.0000 0.68970  0.31649  0.01002  Biso   1.000  H
  H11      1.0000 0.48427  0.52436  0.86258  Biso   1.000  H
  H12      1.0000 0.51573  0.47564  0.13742  Biso   1.000  H
  H13      1.0000 0.57340  0.31262  0.79253  Biso   1.000  H
  H14      1.0000 0.42660  0.68738  0.20747  Biso   1.000  H
  H15      1.0000 0.45080  0.16803  0.86756  Biso   1.000  H
  H16      1.0000 0.54920  0.83197  0.13244  Biso   1.000  H
  H17      1.0000 0.34559  0.05827  0.92478  Biso   1.000  H
  H18      1.0000 0.65441  0.94173  0.07522  Biso   1.000  H
  H19      1.0000 0.21386  0.92359  0.99453  Biso   1.000  H
  H20      1.0000 0.78614  0.07641  0.00547  Biso   1.000  H
  H21      1.0000 0.99377  0.99319  0.14251  Biso   1.000  H
  H22      1.0000 0.00623  0.00681  0.85749  Biso   1.000  H
  H23      1.0000 0.91348  0.19797  0.21766  Biso   1.000  H
  H24      1.0000 0.08652  0.80203  0.78234  Biso   1.000  H
  H25      1.0000 0.34881  0.12172  0.21620  Biso   1.000  H
  H26      1.0000 0.65119  0.87828  0.78380  Biso   1.000  H
  H27      1.0000 0.48531  0.25301  0.14920  Biso   1.000  H
  H28      1.0000 0.51469  0.74699  0.85080  Biso   1.000  H
  H29      1.0000 0.69444  0.17894  0.22917  Biso   1.000  H
  H30      1.0000 0.30556  0.82106  0.77083  Biso   1.000  H
  H31      1.0000 0.85244  0.01828  0.36070  Biso   1.000  H
  H32      1.0000 0.14756  0.98172  0.63930  Biso   1.000  H
  H33      1.0000 0.92583  0.80787  0.50227  Biso   1.000  H
  H34      1.0000 0.07417  0.19213  0.49773  Biso   1.000  H
  H35      1.0000 0.89661  0.60596  0.61813  Biso   1.000  H
  H36      1.0000 0.10339  0.39404  0.38187  Biso   1.000  H
  H37      1.0000 0.76125  0.46946  0.68944  Biso   1.000  H
  H38      1.0000 0.23875  0.53054  0.31056  Biso   1.000  H
  H39      1.0000 0.55074  0.54002  0.61952  Biso   1.000  H
  H40      1.0000 0.44926  0.45998  0.38048  Biso   1.000  H
  H41      1.0000 0.38048  0.60414  0.56845  Biso   1.000  H
  H42      1.0000 0.61952  0.39586  0.43155  Biso   1.000  H
  H43      1.0000 0.17218  0.67924  0.49559  Biso   1.000  H
  H44      1.0000 0.82782  0.32076  0.50441  Biso   1.000  H
  H45      1.0000 0.10372  0.88644  0.34328  Biso   1.000  H
  H46      1.0000 0.89628  0.11356  0.65672  Biso   1.000  H
  H47      1.0000 0.24346  0.01446  0.26827  Biso   1.000  H
  H48      1.0000 0.75654  0.98554  0.73173  Biso   1.000  H
  C1       1.0000 0.90770  0.41980  0.23750  Biso   1.000  C
  C2       1.0000 0.09230  0.58020  0.76250  Biso   1.000  C
  C3       1.0000 0.85990  0.53970  0.27440  Biso   1.000  C
  C4       1.0000 0.14010  0.46030  0.72560  Biso   1.000  C
  C5       1.0000 0.93130  0.61860  0.23200  Biso   1.000  C
  C6       1.0000 0.06870  0.38140  0.76800  Biso   1.000  C
  C7       1.0000 0.05570  0.57870  0.15000  Biso   1.000  C
  C8       1.0000 0.94430  0.42130  0.85000  Biso   1.000  C
  C9       1.0000 0.13300  0.65920  0.10400  Biso   1.000  C
  C10      1.0000 0.86700  0.34080  0.89600  Biso   1.000  C
  C11      1.0000 0.25220  0.62130  0.02370  Biso   1.000  C
  C12      1.0000 0.74780  0.37870  0.97630  Biso   1.000  C
  C13      1.0000 0.30650  0.49920  0.98120  Biso   1.000  C
  C14      1.0000 0.69350  0.50080  0.01880  Biso   1.000  C
  C15      1.0000 0.42850  0.45990  0.89650  Biso   1.000  C
  C16      1.0000 0.57150  0.54010  0.10350  Biso   1.000  C
  C17      1.0000 0.47770  0.34300  0.85790  Biso   1.000  C
  C18      1.0000 0.52230  0.65700  0.14210  Biso   1.000  C
  C19      1.0000 0.40780  0.26050  0.90090  Biso   1.000  C
  C20      1.0000 0.59220  0.73950  0.09910  Biso   1.000  C
  C21      1.0000 0.28490  0.29430  0.98470  Biso   1.000  C
  C22      1.0000 0.71510  0.70570  0.01530  Biso   1.000  C
  C23      1.0000 0.20660  0.21130  0.02940  Biso   1.000  C
  C24      1.0000 0.79340  0.78870  0.97060  Biso   1.000  C
  C25      1.0000 0.25050  0.09170  0.98980  Biso   1.000  C
  C26      1.0000 0.74950  0.90830  0.01020  Biso   1.000  C
  C27      1.0000 0.17600  0.01470  0.02920  Biso   1.000  C
  C28      1.0000 0.82400  0.98530  0.97080  Biso   1.000  C
  C29      1.0000 0.05440  0.05290  0.11180  Biso   1.000  C
  C30      1.0000 0.94560  0.94710  0.88820  Biso   1.000  C
  C31      1.0000 0.00960  0.16790  0.15310  Biso   1.000  C
  C32      1.0000 0.99040  0.83210  0.84690  Biso   1.000  C
  C33      1.0000 0.08240  0.24980  0.11320  Biso   1.000  C
  C34      1.0000 0.91760  0.75020  0.88680  Biso   1.000  C
  C35      1.0000 0.03090  0.37480  0.15550  Biso   1.000  C
  C36      1.0000 0.96910  0.62520  0.84450  Biso   1.000  C
  C37      1.0000 0.10620  0.45610  0.11110  Biso   1.000  C
  C38      1.0000 0.89380  0.54390  0.88890  Biso   1.000  C
  C39      1.0000 0.23390  0.41530  0.02560  Biso   1.000  C
  C40      1.0000 0.76610  0.58470  0.97440  Biso   1.000  C
  C41      1.0000 0.44120  0.08480  0.25090  Biso   1.000  C
  C42      1.0000 0.55880  0.91520  0.74910  Biso   1.000  C
  C43      1.0000 0.51870  0.15990  0.21260  Biso   1.000  C
  C44      1.0000 0.48130  0.84010  0.78740  Biso   1.000  C
  C45      1.0000 0.63460  0.11860  0.25680  Biso   1.000  C
  C46      1.0000 0.36540  0.88140  0.74320  Biso   1.000  C
  C47      1.0000 0.67620  0.99990  0.33830  Biso   1.000  C
  C48      1.0000 0.32380  0.00010  0.66170  Biso   1.000  C
  C49      1.0000 0.79630  0.95470  0.38670  Biso   1.000  C
  C50      1.0000 0.20370  0.04530  0.61330  Biso   1.000  C
  C51      1.0000 0.83600  0.83970  0.46470  Biso   1.000  C
  C52      1.0000 0.16400  0.16030  0.53530  Biso   1.000  C
  C53      1.0000 0.76110  0.75760  0.50550  Biso   1.000  C
  C54      1.0000 0.23890  0.24240  0.49450  Biso   1.000  C
  C55      1.0000 0.80290  0.63800  0.58660  Biso   1.000  C
  C56      1.0000 0.19710  0.36200  0.41340  Biso   1.000  C
  C57      1.0000 0.72780  0.56240  0.62580  Biso   1.000  C
  C58      1.0000 0.27220  0.43760  0.37420  Biso   1.000  C
  C59      1.0000 0.60790  0.60270  0.58610  Biso   1.000  C
  C60      1.0000 0.39210  0.39730  0.41390  Biso   1.000  C
  C61      1.0000 0.56170  0.72160  0.50430  Biso   1.000  C
  C62      1.0000 0.43830  0.27840  0.49570  Biso   1.000  C
  C63      1.0000 0.43540  0.76690  0.46090  Biso   1.000  C
  C64      1.0000 0.56460  0.23310  0.53910  Biso   1.000  C
  C65      1.0000 0.35140  0.69580  0.50260  Biso   1.000  C
  C66      1.0000 0.64860  0.30420  0.49740  Biso   1.000  C
  C67      1.0000 0.23420  0.73760  0.46220  Biso   1.000  C
  C68      1.0000 0.76580  0.26240  0.53780  Biso   1.000  C
  C69      1.0000 0.19590  0.85280  0.37760  Biso   1.000  C
  C70      1.0000 0.80410  0.14720  0.62240  Biso   1.000  C
  C71      1.0000 0.27580  0.92430  0.33480  Biso   1.000  C
  C72      1.0000 0.72420  0.07570  0.66520  Biso   1.000  C
  C73      1.0000 0.39560  0.88530  0.37590  Biso   1.000  C
  C74      1.0000 0.60440  0.11470  0.62410  Biso   1.000  C
  C75      1.0000 0.47810  0.96540  0.33250  Biso   1.000  C
  C76      1.0000 0.52190  0.03460  0.66750  Biso   1.000  C
  C77      1.0000 0.59820  0.92140  0.37730  Biso   1.000  C
  C78      1.0000 0.40180  0.07860  0.62270  Biso   1.000  C
  C79      1.0000 0.63980  0.79910  0.46230  Biso   1.000  C
  C80      1.0000 0.36020  0.20090  0.53770  Biso   1.000  C
