data_image0
_cell_length_a       6.0565
_cell_length_b       7.8376
_cell_length_c       12.5523
_cell_angle_alpha    101.275
_cell_angle_beta     99.4529
_cell_angle_gamma    94.208

_symmetry_space_group_name_H-M    "P 1"
_symmetry_int_tables_number       1

loop_
  _symmetry_equiv_pos_as_xyz
  'x, y, z'

loop_
  _atom_site_label
  _atom_site_occupancy
  _atom_site_fract_x
  _atom_site_fract_y
  _atom_site_fract_z
  _atom_site_thermal_displace_type
  _atom_site_B_iso_or_equiv
  _atom_site_type_symbol
  H1       1.0000 0.35237  0.49033  0.17041  Biso   1.000  H
  H2       1.0000 0.64763  0.50967  0.82959  Biso   1.000  H
  H3       1.0000 0.31665  0.64407  0.35596  Biso   1.000  H
  H4       1.0000 0.68335  0.35593  0.64404  Biso   1.000  H
  H5       1.0000 0.09571  0.81375  0.48008  Biso   1.000  H
  H6       1.0000 0.90429  0.18625  0.51992  Biso   1.000  H
  H7       1.0000 0.72115  0.89827  0.40173  Biso   1.000  H
  H8       1.0000 0.27885  0.10173  0.59827  Biso   1.000  H
  H9       1.0000 0.57106  0.81302  0.20419  Biso   1.000  H
  H10      1.0000 0.42894  0.18698  0.79581  Biso   1.000  H
  H11      1.0000 0.60994  0.65993  0.01614  Biso   1.000  H
  H12      1.0000 0.39006  0.34007  0.98386  Biso   1.000  H
  H13      1.0000 0.87089  0.23302  0.11315  Biso   1.000  H
  H14      1.0000 0.12911  0.76698  0.88685  Biso   1.000  H
  H15      1.0000 0.85235  0.38148  0.30358  Biso   1.000  H
  H16      1.0000 0.14765  0.61852  0.69642  Biso   1.000  H
  H17      1.0000 0.64691  0.42909  0.45771  Biso   1.000  H
  H18      1.0000 0.35309  0.57091  0.54229  Biso   1.000  H
  H19      1.0000 0.26344  0.27059  0.43900  Biso   1.000  H
  H20      1.0000 0.73656  0.72941  0.56100  Biso   1.000  H
  H21      1.0000 0.09006  0.06651  0.26694  Biso   1.000  H
  H22      1.0000 0.90994  0.93349  0.73306  Biso   1.000  H
  H23      1.0000 0.10822  0.91880  0.07690  Biso   1.000  H
  H24      1.0000 0.89178  0.08120  0.92310  Biso   1.000  H
  C1       1.0000 0.18990  0.52770  0.13650  Biso   1.000  C
  C2       1.0000 0.81010  0.47230  0.86350  Biso   1.000  C
  C3       1.0000 0.07010  0.62580  0.20750  Biso   1.000  C
  C4       1.0000 0.92990  0.37420  0.79250  Biso   1.000  C
  C5       1.0000 0.15240  0.67990  0.32320  Biso   1.000  C
  C6       1.0000 0.84760  0.32010  0.67680  Biso   1.000  C
  C7       1.0000 0.03020  0.77400  0.39170  Biso   1.000  C
  C8       1.0000 0.96980  0.22600  0.60830  Biso   1.000  C
  C9       1.0000 0.81700  0.82210  0.34680  Biso   1.000  C
  C10      1.0000 0.18300  0.17790  0.65320  Biso   1.000  C
  C11      1.0000 0.73350  0.77550  0.23770  Biso   1.000  C
  C12      1.0000 0.26650  0.22450  0.76230  Biso   1.000  C
  C13      1.0000 0.85260  0.67510  0.16280  Biso   1.000  C
  C14      1.0000 0.14740  0.32490  0.83720  Biso   1.000  C
  C15      1.0000 0.77280  0.62290  0.05000  Biso   1.000  C
  C16      1.0000 0.22720  0.37710  0.95000  Biso   1.000  C
  C17      1.0000 0.10880  0.47610  0.02320  Biso   1.000  C
  C18      1.0000 0.89120  0.52390  0.97680  Biso   1.000  C
  C19      1.0000 0.70400  0.16400  0.10510  Biso   1.000  C
  C20      1.0000 0.29600  0.83600  0.89490  Biso   1.000  C
  C21      1.0000 0.59090  0.19510  0.19330  Biso   1.000  C
  C22      1.0000 0.40910  0.80490  0.80670  Biso   1.000  C
  C23      1.0000 0.68540  0.31280  0.29560  Biso   1.000  C
  C24      1.0000 0.31460  0.68720  0.70440  Biso   1.000  C
  C25      1.0000 0.57150  0.33890  0.38060  Biso   1.000  C
  C26      1.0000 0.42850  0.66110  0.61940  Biso   1.000  C
  C27      1.0000 0.35230  0.24770  0.36960  Biso   1.000  C
  C28      1.0000 0.64770  0.75230  0.63040  Biso   1.000  C
  C29      1.0000 0.25660  0.13600  0.27510  Biso   1.000  C
  C30      1.0000 0.74340  0.86400  0.72490  Biso   1.000  C
  C31      1.0000 0.36880  0.10360  0.18270  Biso   1.000  C
  C32      1.0000 0.63120  0.89640  0.81730  Biso   1.000  C
  C33      1.0000 0.27500  0.98790  0.08470  Biso   1.000  C
  C34      1.0000 0.72500  0.01210  0.91530  Biso   1.000  C
  C35      1.0000 0.61170  0.04570  0.00540  Biso   1.000  C
  C36      1.0000 0.38830  0.95430  0.99460  Biso   1.000  C
