data_image0
_cell_length_a       8.581
_cell_length_b       10.971
_cell_length_c       14.655
_cell_angle_alpha    90
_cell_angle_beta     92.5
_cell_angle_gamma    90

_symmetry_space_group_name_H-M    "P 1"
_symmetry_int_tables_number       1

loop_
  _symmetry_equiv_pos_as_xyz
  'x, y, z'

loop_
  _atom_site_label
  _atom_site_occupancy
  _atom_site_fract_x
  _atom_site_fract_y
  _atom_site_fract_z
  _atom_site_thermal_displace_type
  _atom_site_B_iso_or_equiv
  _atom_site_type_symbol
  H1       1.0000 0.87291  0.29000  0.39883  Biso   1.000  H
  H2       1.0000 0.12709  0.79000  0.60117  Biso   1.000  H
  H3       1.0000 0.72281  0.13017  0.47289  Biso   1.000  H
  H4       1.0000 0.27719  0.63017  0.52711  Biso   1.000  H
  H5       1.0000 0.80403  0.91632  0.46253  Biso   1.000  H
  H6       1.0000 0.19597  0.41632  0.53747  Biso   1.000  H
  H7       1.0000 0.97378  0.76632  0.41202  Biso   1.000  H
  H8       1.0000 0.02622  0.26632  0.58798  Biso   1.000  H
  H9       1.0000 0.20043  0.70124  0.32731  Biso   1.000  H
  H10      1.0000 0.79957  0.20124  0.67269  Biso   1.000  H
  H11      1.0000 0.35645  0.85387  0.24765  Biso   1.000  H
  H12      1.0000 0.64355  0.35387  0.75235  Biso   1.000  H
  H13      1.0000 0.93618  0.29854  0.20024  Biso   1.000  H
  H14      1.0000 0.06382  0.79854  0.79976  Biso   1.000  H
  H15      1.0000 0.05601  0.47215  0.12502  Biso   1.000  H
  H16      1.0000 0.94399  0.97215  0.87498  Biso   1.000  H
  H17      1.0000 0.28634  0.60874  0.10806  Biso   1.000  H
  H18      1.0000 0.71366  0.10874  0.89194  Biso   1.000  H
  H19      1.0000 0.54269  0.67887  0.16484  Biso   1.000  H
  H20      1.0000 0.45731  0.17887  0.83516  Biso   1.000  H
  H21      1.0000 0.76268  0.67004  0.28183  Biso   1.000  H
  H22      1.0000 0.23732  0.17004  0.71817  Biso   1.000  H
  H23      1.0000 0.88103  0.58366  0.42296  Biso   1.000  H
  H24      1.0000 0.11897  0.08366  0.57704  Biso   1.000  H
  H25      1.0000 0.74105  0.42918  0.50973  Biso   1.000  H
  H26      1.0000 0.25895  0.92918  0.49027  Biso   1.000  H
  H27      1.0000 0.51847  0.28986  0.52181  Biso   1.000  H
  H28      1.0000 0.48153  0.78986  0.47819  Biso   1.000  H
  H29      1.0000 0.27648  0.20305  0.45774  Biso   1.000  H
  H30      1.0000 0.72352  0.70305  0.54226  Biso   1.000  H
  H31      1.0000 0.51146  0.07706  0.33295  Biso   1.000  H
  H32      1.0000 0.48854  0.57706  0.66705  Biso   1.000  H
  H33      1.0000 0.68398  0.20984  0.24964  Biso   1.000  H
  H34      1.0000 0.31602  0.70984  0.75036  Biso   1.000  H
  H35      1.0000 0.73100  0.34687  0.11827  Biso   1.000  H
  H36      1.0000 0.26900  0.84687  0.88173  Biso   1.000  H
  H37      1.0000 0.63788  0.43917  0.97575  Biso   1.000  H
  H38      1.0000 0.36212  0.93917  0.02425  Biso   1.000  H
  H39      1.0000 0.42714  0.46899  0.85698  Biso   1.000  H
  H40      1.0000 0.57286  0.96899  0.14302  Biso   1.000  H
  H41      1.0000 0.17113  0.41915  0.79017  Biso   1.000  H
  H42      1.0000 0.82887  0.91915  0.20983  Biso   1.000  H
  H43      1.0000 0.00059  0.27005  0.86583  Biso   1.000  H
  H44      1.0000 0.99941  0.77005  0.13417  Biso   1.000  H
  H45      1.0000 0.95906  0.12967  0.99421  Biso   1.000  H
  H46      1.0000 0.04094  0.62967  0.00579  Biso   1.000  H
  H47      1.0000 0.04686  0.03899  0.13967  Biso   1.000  H
  H48      1.0000 0.95314  0.53899  0.86033  Biso   1.000  H
  C1       1.0000 0.03990  0.17000  0.34450  Biso   1.000  C
  C2       1.0000 0.96010  0.67000  0.65550  Biso   1.000  C
  C3       1.0000 0.90880  0.19520  0.39290  Biso   1.000  C
  C4       1.0000 0.09120  0.69520  0.60710  Biso   1.000  C
  C5       1.0000 0.82430  0.10470  0.43480  Biso   1.000  C
  C6       1.0000 0.17570  0.60470  0.56520  Biso   1.000  C
  C7       1.0000 0.86810  0.98840  0.42940  Biso   1.000  C
  C8       1.0000 0.13190  0.48840  0.57060  Biso   1.000  C
  C9       1.0000 0.99990  0.95530  0.38010  Biso   1.000  C
  C10      1.0000 0.00010  0.45530  0.61990  Biso   1.000  C
  C11      1.0000 0.04390  0.83210  0.37610  Biso   1.000  C
  C12      1.0000 0.95610  0.33210  0.62390  Biso   1.000  C
  C13      1.0000 0.16700  0.79700  0.33050  Biso   1.000  C
  C14      1.0000 0.83300  0.29700  0.66950  Biso   1.000  C
  C15      1.0000 0.25740  0.88440  0.28570  Biso   1.000  C
  C16      1.0000 0.74260  0.38440  0.71430  Biso   1.000  C
  C17      1.0000 0.22040  0.00520  0.28690  Biso   1.000  C
  C18      1.0000 0.77960  0.50520  0.71310  Biso   1.000  C
  C19      1.0000 0.08840  0.04580  0.33580  Biso   1.000  C
  C20      1.0000 0.91160  0.54580  0.66420  Biso   1.000  C
  C21      1.0000 0.11790  0.27750  0.30320  Biso   1.000  C
  C22      1.0000 0.88210  0.77750  0.69680  Biso   1.000  C
  C23      1.0000 0.04620  0.33520  0.22800  Biso   1.000  C
  C24      1.0000 0.95380  0.83520  0.77200  Biso   1.000  C
  C25      1.0000 0.11360  0.43210  0.18570  Biso   1.000  C
  C26      1.0000 0.88640  0.93210  0.81430  Biso   1.000  C
  C27      1.0000 0.25830  0.47740  0.21730  Biso   1.000  C
  C28      1.0000 0.74170  0.97740  0.78270  Biso   1.000  C
  C29      1.0000 0.32870  0.42460  0.29760  Biso   1.000  C
  C30      1.0000 0.67130  0.92460  0.70240  Biso   1.000  C
  C31      1.0000 0.33940  0.57100  0.17090  Biso   1.000  C
  C32      1.0000 0.66060  0.07100  0.82910  Biso   1.000  C
  C33      1.0000 0.48040  0.60960  0.20220  Biso   1.000  C
  C34      1.0000 0.51960  0.10960  0.79780  Biso   1.000  C
  C35      1.0000 0.55380  0.56230  0.28410  Biso   1.000  C
  C36      1.0000 0.44620  0.06230  0.71590  Biso   1.000  C
  C37      1.0000 0.47550  0.46980  0.33230  Biso   1.000  C
  C38      1.0000 0.52450  0.96980  0.66770  Biso   1.000  C
  C39      1.0000 0.70050  0.60100  0.31970  Biso   1.000  C
  C40      1.0000 0.29950  0.10100  0.68030  Biso   1.000  C
  C41      1.0000 0.76580  0.55350  0.39790  Biso   1.000  C
  C42      1.0000 0.23420  0.05350  0.60210  Biso   1.000  C
  C43      1.0000 0.68900  0.46640  0.44670  Biso   1.000  C
  C44      1.0000 0.31100  0.96640  0.55330  Biso   1.000  C
  C45      1.0000 0.54500  0.42180  0.41380  Biso   1.000  C
  C46      1.0000 0.45500  0.92180  0.58620  Biso   1.000  C
  C47      1.0000 0.46590  0.32590  0.45810  Biso   1.000  C
  C48      1.0000 0.53410  0.82590  0.54190  Biso   1.000  C
  C49      1.0000 0.33170  0.27860  0.42350  Biso   1.000  C
  C50      1.0000 0.66830  0.77860  0.57650  Biso   1.000  C
  C51      1.0000 0.25770  0.32640  0.34120  Biso   1.000  C
  C52      1.0000 0.74230  0.82640  0.65880  Biso   1.000  C
  C53      1.0000 0.32140  0.08640  0.23330  Biso   1.000  C
  C54      1.0000 0.67860  0.58640  0.76670  Biso   1.000  C
  C55      1.0000 0.47170  0.11440  0.26710  Biso   1.000  C
  C56      1.0000 0.52830  0.61440  0.73290  Biso   1.000  C
  C57      1.0000 0.56810  0.18880  0.22030  Biso   1.000  C
  C58      1.0000 0.43190  0.68880  0.77970  Biso   1.000  C
  C59      1.0000 0.52040  0.24120  0.13750  Biso   1.000  C
  C60      1.0000 0.47960  0.74120  0.86250  Biso   1.000  C
  C61      1.0000 0.36960  0.21180  0.10000  Biso   1.000  C
  C62      1.0000 0.63040  0.71180  0.90000  Biso   1.000  C
  C63      1.0000 0.61590  0.32440  0.08850  Biso   1.000  C
  C64      1.0000 0.38410  0.82440  0.91150  Biso   1.000  C
  C65      1.0000 0.56500  0.37450  0.01120  Biso   1.000  C
  C66      1.0000 0.43500  0.87450  0.98880  Biso   1.000  C
  C67      1.0000 0.41370  0.34940  0.97100  Biso   1.000  C
  C68      1.0000 0.58630  0.84940  0.02900  Biso   1.000  C
  C69      1.0000 0.31620  0.26520  0.01600  Biso   1.000  C
  C70      1.0000 0.68380  0.76520  0.98400  Biso   1.000  C
  C71      1.0000 0.35430  0.40330  0.89110  Biso   1.000  C
  C72      1.0000 0.64570  0.90330  0.10890  Biso   1.000  C
  C73      1.0000 0.21140  0.37580  0.85390  Biso   1.000  C
  C74      1.0000 0.78860  0.87580  0.14610  Biso   1.000  C
  C75      1.0000 0.11550  0.29250  0.89590  Biso   1.000  C
  C76      1.0000 0.88450  0.79250  0.10410  Biso   1.000  C
  C77      1.0000 0.16760  0.23710  0.97830  Biso   1.000  C
  C78      1.0000 0.83240  0.73710  0.02170  Biso   1.000  C
  C79      1.0000 0.07400  0.15260  0.02420  Biso   1.000  C
  C80      1.0000 0.92600  0.65260  0.97580  Biso   1.000  C
  C81      1.0000 0.12210  0.10240  0.10530  Biso   1.000  C
  C82      1.0000 0.87790  0.60240  0.89470  Biso   1.000  C
  C83      1.0000 0.27170  0.13210  0.14730  Biso   1.000  C
  C84      1.0000 0.72830  0.63210  0.85270  Biso   1.000  C
