data_image0
_cell_length_a       8.0786
_cell_length_b       14.5048
_cell_length_c       16.0279
_cell_angle_alpha    115.618
_cell_angle_beta     90
_cell_angle_gamma    106.169

_symmetry_space_group_name_H-M    "P 1"
_symmetry_int_tables_number       1

loop_
  _symmetry_equiv_pos_as_xyz
  'x, y, z'

loop_
  _atom_site_label
  _atom_site_occupancy
  _atom_site_fract_x
  _atom_site_fract_y
  _atom_site_fract_z
  _atom_site_thermal_displace_type
  _atom_site_B_iso_or_equiv
  _atom_site_type_symbol
  C1       1.0000 0.62389  0.47498  0.93703  Biso   1.000  C
  C2       1.0000 0.37611  0.52502  0.06297  Biso   1.000  C
  C3       1.0000 0.14891  0.52502  0.56297  Biso   1.000  C
  C4       1.0000 0.85109  0.47498  0.43703  Biso   1.000  C
  C5       1.0000 0.62562  0.58184  0.99120  Biso   1.000  C
  C6       1.0000 0.37438  0.41816  0.00880  Biso   1.000  C
  C7       1.0000 0.04378  0.41816  0.50880  Biso   1.000  C
  C8       1.0000 0.95622  0.58184  0.49120  Biso   1.000  C
  C9       1.0000 0.49150  0.39040  0.94615  Biso   1.000  C
  C10      1.0000 0.50850  0.60960  0.05385  Biso   1.000  C
  C11      1.0000 0.10110  0.60960  0.55385  Biso   1.000  C
  C12      1.0000 0.89890  0.39040  0.44615  Biso   1.000  C
  C13      1.0000 0.48284  0.28088  0.88910  Biso   1.000  C
  C14      1.0000 0.51716  0.71912  0.11090  Biso   1.000  C
  C15      1.0000 0.20196  0.71912  0.61090  Biso   1.000  C
  C16      1.0000 0.79804  0.28088  0.38910  Biso   1.000  C
  C17      1.0000 0.60150  0.25720  0.82670  Biso   1.000  C
  C18      1.0000 0.39850  0.74280  0.17330  Biso   1.000  C
  C19      1.0000 0.34430  0.74280  0.67330  Biso   1.000  C
  C20      1.0000 0.65570  0.25720  0.32670  Biso   1.000  C
  C21      1.0000 0.73830  0.34240  0.82065  Biso   1.000  C
  C22      1.0000 0.26170  0.65760  0.17935  Biso   1.000  C
  C23      1.0000 0.39590  0.65760  0.67935  Biso   1.000  C
  C24      1.0000 0.60410  0.34240  0.32065  Biso   1.000  C
  C25      1.0000 0.74660  0.44960  0.87572  Biso   1.000  C
  C26      1.0000 0.25340  0.55040  0.12428  Biso   1.000  C
  C27      1.0000 0.29700  0.55040  0.62428  Biso   1.000  C
  C28      1.0000 0.70300  0.44960  0.37572  Biso   1.000  C
  C29      1.0000 0.88500  0.53840  0.86890  Biso   1.000  C
  C30      1.0000 0.11500  0.46160  0.13110  Biso   1.000  C
  C31      1.0000 0.34660  0.46160  0.63110  Biso   1.000  C
  C32      1.0000 0.65340  0.53840  0.36890  Biso   1.000  C
  C33      1.0000 0.02560  0.59900  0.93620  Biso   1.000  C
  C34      1.0000 0.97440  0.40100  0.06380  Biso   1.000  C
  C35      1.0000 0.42660  0.40100  0.56380  Biso   1.000  C
  C36      1.0000 0.57340  0.59900  0.43620  Biso   1.000  C
  C37      1.0000 0.15003  0.68406  0.93180  Biso   1.000  C
  C38      1.0000 0.84997  0.31594  0.06820  Biso   1.000  C
  C39      1.0000 0.46597  0.31594  0.56820  Biso   1.000  C
  C40      1.0000 0.53403  0.68406  0.43180  Biso   1.000  C
  C41      1.0000 0.13480  0.70880  0.86150  Biso   1.000  C
  C42      1.0000 0.86520  0.29120  0.13850  Biso   1.000  C
  C43      1.0000 0.42600  0.29120  0.63850  Biso   1.000  C
  C44      1.0000 0.57400  0.70880  0.36150  Biso   1.000  C
  C45      1.0000 0.99604  0.64888  0.79330  Biso   1.000  C
  C46      1.0000 0.00396  0.35112  0.20670  Biso   1.000  C
  C47      1.0000 0.34716  0.35112  0.70670  Biso   1.000  C
  C48      1.0000 0.65284  0.64888  0.29330  Biso   1.000  C
  C49      1.0000 0.86947  0.56254  0.79640  Biso   1.000  C
  C50      1.0000 0.13053  0.43746  0.20360  Biso   1.000  C
  C51      1.0000 0.30693  0.43746  0.70360  Biso   1.000  C
  C52      1.0000 0.69307  0.56254  0.29640  Biso   1.000  C
  C53      1.0000 0.85877  0.31394  0.75680  Biso   1.000  C
  C54      1.0000 0.14123  0.68606  0.24320  Biso   1.000  C
  C55      1.0000 0.54483  0.68606  0.74320  Biso   1.000  C
  C56      1.0000 0.45517  0.31394  0.25680  Biso   1.000  C
  C57      1.0000 0.84353  0.20946  0.69930  Biso   1.000  C
  C58      1.0000 0.15647  0.79054  0.30070  Biso   1.000  C
  C59      1.0000 0.63407  0.79054  0.80070  Biso   1.000  C
  C60      1.0000 0.36593  0.20946  0.19930  Biso   1.000  C
  C61      1.0000 0.70593  0.12646  0.70260  Biso   1.000  C
  C62      1.0000 0.29407  0.87354  0.29740  Biso   1.000  C
  C63      1.0000 0.57947  0.87354  0.79740  Biso   1.000  C
  C64      1.0000 0.42053  0.12646  0.20260  Biso   1.000  C
  C65      1.0000 0.59073  0.14846  0.76270  Biso   1.000  C
  C66      1.0000 0.40927  0.85154  0.23730  Biso   1.000  C
  C67      1.0000 0.44227  0.85154  0.73730  Biso   1.000  C
  C68      1.0000 0.55773  0.14846  0.26270  Biso   1.000  C
  C69      1.0000 0.34270  0.19280  0.89530  Biso   1.000  C
  C70      1.0000 0.65730  0.80720  0.10470  Biso   1.000  C
  C71      1.0000 0.14990  0.80720  0.60470  Biso   1.000  C
  C72      1.0000 0.85010  0.19280  0.39530  Biso   1.000  C
  C73      1.0000 0.38074  0.12808  0.92960  Biso   1.000  C
  C74      1.0000 0.61926  0.87192  0.07040  Biso   1.000  C
  C75      1.0000 0.25266  0.87192  0.57040  Biso   1.000  C
  C76      1.0000 0.74734  0.12808  0.42960  Biso   1.000  C
  C77      1.0000 0.24692  0.04444  0.93350  Biso   1.000  C
  C78      1.0000 0.75308  0.95556  0.06650  Biso   1.000  C
  C79      1.0000 0.20248  0.95556  0.56650  Biso   1.000  C
  C80      1.0000 0.79752  0.04444  0.43350  Biso   1.000  C
  C81      1.0000 0.08098  0.02776  0.90280  Biso   1.000  C
  C82      1.0000 0.91902  0.97224  0.09720  Biso   1.000  C
  C83      1.0000 0.05322  0.97224  0.59720  Biso   1.000  C
  C84      1.0000 0.94678  0.02776  0.40280  Biso   1.000  C
  C85      1.0000 0.04020  0.09180  0.86920  Biso   1.000  C
  C86      1.0000 0.95980  0.90820  0.13080  Biso   1.000  C
  C87      1.0000 0.94840  0.90820  0.63080  Biso   1.000  C
  C88      1.0000 0.05160  0.09180  0.36920  Biso   1.000  C
  C89      1.0000 0.17087  0.17414  0.86500  Biso   1.000  C
  C90      1.0000 0.82913  0.82586  0.13500  Biso   1.000  C
  C91      1.0000 0.99673  0.82586  0.63500  Biso   1.000  C
  C92      1.0000 0.00327  0.17414  0.36500  Biso   1.000  C
  H1       1.0000 0.72337  0.64526  0.98334  Biso   1.000  H
  H2       1.0000 0.27663  0.35474  0.01666  Biso   1.000  H
  H3       1.0000 0.07811  0.35474  0.51666  Biso   1.000  H
  H4       1.0000 0.92189  0.64526  0.48334  Biso   1.000  H
  H5       1.0000 0.04085  0.58193  0.99515  Biso   1.000  H
  H6       1.0000 0.95915  0.41807  0.00485  Biso   1.000  H
  H7       1.0000 0.45892  0.41807  0.50485  Biso   1.000  H
  H8       1.0000 0.54108  0.58193  0.49515  Biso   1.000  H
  H9       1.0000 0.26066  0.72971  0.98713  Biso   1.000  H
  H10      1.0000 0.73934  0.27029  0.01287  Biso   1.000  H
  H11      1.0000 0.53095  0.27029  0.51287  Biso   1.000  H
  H12      1.0000 0.46905  0.72971  0.48713  Biso   1.000  H
  H13      1.0000 0.23286  0.77566  0.85802  Biso   1.000  H
  H14      1.0000 0.76714  0.22434  0.14198  Biso   1.000  H
  H15      1.0000 0.45721  0.22434  0.64198  Biso   1.000  H
  H16      1.0000 0.54279  0.77566  0.35802  Biso   1.000  H
  H17      1.0000 0.98168  0.66695  0.73491  Biso   1.000  H
  H18      1.0000 0.01832  0.33305  0.26509  Biso   1.000  H
  H19      1.0000 0.31473  0.33305  0.76509  Biso   1.000  H
  H20      1.0000 0.68527  0.66695  0.23491  Biso   1.000  H
  H21      1.0000 0.75921  0.51443  0.74080  Biso   1.000  H
  H22      1.0000 0.24079  0.48557  0.25920  Biso   1.000  H
  H23      1.0000 0.24478  0.48557  0.75920  Biso   1.000  H
  H24      1.0000 0.75522  0.51443  0.24080  Biso   1.000  H
  H25      1.0000 0.96278  0.37787  0.75308  Biso   1.000  H
  H26      1.0000 0.03722  0.62213  0.24692  Biso   1.000  H
  H27      1.0000 0.58491  0.62213  0.74692  Biso   1.000  H
  H28      1.0000 0.41509  0.37787  0.25308  Biso   1.000  H
  H29      1.0000 0.93577  0.19031  0.64977  Biso   1.000  H
  H30      1.0000 0.06423  0.80969  0.35023  Biso   1.000  H
  H31      1.0000 0.74546  0.80969  0.85023  Biso   1.000  H
  H32      1.0000 0.25454  0.19031  0.14977  Biso   1.000  H
  H33      1.0000 0.69135  0.04299  0.65408  Biso   1.000  H
  H34      1.0000 0.30865  0.95701  0.34592  Biso   1.000  H
  H35      1.0000 0.64836  0.95701  0.84592  Biso   1.000  H
  H36      1.0000 0.35164  0.04299  0.15408  Biso   1.000  H
  H37      1.0000 0.48324  0.08373  0.76284  Biso   1.000  H
  H38      1.0000 0.51676  0.91627  0.23716  Biso   1.000  H
  H39      1.0000 0.39951  0.91627  0.73716  Biso   1.000  H
  H40      1.0000 0.60049  0.08373  0.26284  Biso   1.000  H
  H41      1.0000 0.51482  0.14104  0.95426  Biso   1.000  H
  H42      1.0000 0.48518  0.85896  0.04574  Biso   1.000  H
  H43      1.0000 0.37378  0.85896  0.54574  Biso   1.000  H
  H44      1.0000 0.62622  0.14104  0.45426  Biso   1.000  H
  H45      1.0000 0.27937  0.99340  0.96050  Biso   1.000  H
  H46      1.0000 0.72063  0.00660  0.03950  Biso   1.000  H
  H47      1.0000 0.28598  0.00660  0.53950  Biso   1.000  H
  H48      1.0000 0.71402  0.99340  0.46050  Biso   1.000  H
  H49      1.0000 0.97771  0.96212  0.90492  Biso   1.000  H
  H50      1.0000 0.02229  0.03788  0.09508  Biso   1.000  H
  H51      1.0000 0.01559  0.03788  0.59508  Biso   1.000  H
  H52      1.0000 0.98441  0.96212  0.40492  Biso   1.000  H
  H53      1.0000 0.90603  0.07823  0.84414  Biso   1.000  H
  H54      1.0000 0.09397  0.92177  0.15586  Biso   1.000  H
  H55      1.0000 0.82780  0.92177  0.65586  Biso   1.000  H
  H56      1.0000 0.17220  0.07823  0.34414  Biso   1.000  H
  H57      1.0000 0.13768  0.22414  0.83698  Biso   1.000  H
  H58      1.0000 0.86232  0.77586  0.16302  Biso   1.000  H
  H59      1.0000 0.91354  0.77586  0.66302  Biso   1.000  H
  H60      1.0000 0.08646  0.22414  0.33698  Biso   1.000  H
