data_image0
_cell_length_a       8.8187
_cell_length_b       12.7295
_cell_length_c       17.268
_cell_angle_alpha    107.667
_cell_angle_beta     90
_cell_angle_gamma    90

_symmetry_space_group_name_H-M    "P 1"
_symmetry_int_tables_number       1

loop_
  _symmetry_equiv_pos_as_xyz
  'x, y, z'

loop_
  _atom_site_label
  _atom_site_occupancy
  _atom_site_fract_x
  _atom_site_fract_y
  _atom_site_fract_z
  _atom_site_thermal_displace_type
  _atom_site_B_iso_or_equiv
  _atom_site_type_symbol
  H1       1.0000 0.66462  0.18212  0.20267  Biso   1.000  H
  H2       1.0000 0.33538  0.81788  0.79733  Biso   1.000  H
  H3       1.0000 0.16462  0.81788  0.29733  Biso   1.000  H
  H4       1.0000 0.83538  0.18212  0.70267  Biso   1.000  H
  H5       1.0000 0.41038  0.10094  0.18228  Biso   1.000  H
  H6       1.0000 0.58962  0.89906  0.81772  Biso   1.000  H
  H7       1.0000 0.91038  0.89906  0.31772  Biso   1.000  H
  H8       1.0000 0.08962  0.10094  0.68228  Biso   1.000  H
  H9       1.0000 0.26921  0.08158  0.05447  Biso   1.000  H
  H10      1.0000 0.73079  0.91842  0.94553  Biso   1.000  H
  H11      1.0000 0.76921  0.91842  0.44553  Biso   1.000  H
  H12      1.0000 0.23079  0.08158  0.55447  Biso   1.000  H
  H13      1.0000 0.38531  0.14153  0.94522  Biso   1.000  H
  H14      1.0000 0.61469  0.85847  0.05478  Biso   1.000  H
  H15      1.0000 0.88531  0.85847  0.55478  Biso   1.000  H
  H16      1.0000 0.11469  0.14153  0.44522  Biso   1.000  H
  H17      1.0000 0.80381  0.32091  0.84581  Biso   1.000  H
  H18      1.0000 0.19619  0.67909  0.15419  Biso   1.000  H
  H19      1.0000 0.30381  0.67909  0.65419  Biso   1.000  H
  H20      1.0000 0.69619  0.32091  0.34581  Biso   1.000  H
  H21      1.0000 0.06271  0.39516  0.86052  Biso   1.000  H
  H22      1.0000 0.93729  0.60484  0.13948  Biso   1.000  H
  H23      1.0000 0.56271  0.60484  0.63948  Biso   1.000  H
  H24      1.0000 0.43729  0.39516  0.36052  Biso   1.000  H
  H25      1.0000 0.21283  0.40690  0.98595  Biso   1.000  H
  H26      1.0000 0.78717  0.59310  0.01405  Biso   1.000  H
  H27      1.0000 0.71283  0.59310  0.51405  Biso   1.000  H
  H28      1.0000 0.28717  0.40690  0.48595  Biso   1.000  H
  H29      1.0000 0.10411  0.34373  0.09431  Biso   1.000  H
  H30      1.0000 0.89589  0.65627  0.90569  Biso   1.000  H
  H31      1.0000 0.60411  0.65627  0.40569  Biso   1.000  H
  H32      1.0000 0.39589  0.34373  0.59431  Biso   1.000  H
  H33      1.0000 0.59792  0.22942  0.89551  Biso   1.000  H
  H34      1.0000 0.40208  0.77058  0.10449  Biso   1.000  H
  H35      1.0000 0.09792  0.77058  0.60449  Biso   1.000  H
  H36      1.0000 0.90208  0.22942  0.39551  Biso   1.000  H
  H37      1.0000 0.90018  0.05584  0.06311  Biso   1.000  H
  H38      1.0000 0.09982  0.94416  0.93689  Biso   1.000  H
  H39      1.0000 0.40018  0.94416  0.43689  Biso   1.000  H
  H40      1.0000 0.59982  0.05584  0.56311  Biso   1.000  H
  H41      1.0000 0.02315  0.89071  0.07883  Biso   1.000  H
  H42      1.0000 0.97685  0.10929  0.92117  Biso   1.000  H
  H43      1.0000 0.52315  0.10929  0.42117  Biso   1.000  H
  H44      1.0000 0.47685  0.89071  0.57883  Biso   1.000  H
  H45      1.0000 0.18625  0.90357  0.19916  Biso   1.000  H
  H46      1.0000 0.81375  0.09643  0.80084  Biso   1.000  H
  H47      1.0000 0.68625  0.09643  0.30084  Biso   1.000  H
  H48      1.0000 0.31375  0.90357  0.69916  Biso   1.000  H
  H49      1.0000 0.22094  0.08041  0.30495  Biso   1.000  H
  H50      1.0000 0.77906  0.91959  0.69505  Biso   1.000  H
  H51      1.0000 0.72094  0.91959  0.19505  Biso   1.000  H
  H52      1.0000 0.27906  0.08041  0.80495  Biso   1.000  H
  H53      1.0000 0.08207  0.47147  0.42337  Biso   1.000  H
  H54      1.0000 0.91793  0.52853  0.57663  Biso   1.000  H
  H55      1.0000 0.58207  0.52853  0.07663  Biso   1.000  H
  H56      1.0000 0.41793  0.47147  0.92337  Biso   1.000  H
  H57      1.0000 0.93418  0.63218  0.41677  Biso   1.000  H
  H58      1.0000 0.06582  0.36782  0.58323  Biso   1.000  H
  H59      1.0000 0.43418  0.36782  0.08323  Biso   1.000  H
  H60      1.0000 0.56582  0.63218  0.91677  Biso   1.000  H
  H61      1.0000 0.78307  0.62466  0.29374  Biso   1.000  H
  H62      1.0000 0.21693  0.37534  0.70626  Biso   1.000  H
  H63      1.0000 0.28307  0.37534  0.20626  Biso   1.000  H
  H64      1.0000 0.71693  0.62466  0.79374  Biso   1.000  H
  H65      1.0000 0.77116  0.45355  0.17927  Biso   1.000  H
  H66      1.0000 0.22884  0.54645  0.82073  Biso   1.000  H
  H67      1.0000 0.27116  0.54645  0.32073  Biso   1.000  H
  H68      1.0000 0.72884  0.45355  0.67927  Biso   1.000  H
  H69      1.0000 0.16407  0.27867  0.35977  Biso   1.000  H
  H70      1.0000 0.83593  0.72133  0.64023  Biso   1.000  H
  H71      1.0000 0.66407  0.72133  0.14023  Biso   1.000  H
  H72      1.0000 0.33593  0.27867  0.85977  Biso   1.000  H
  C1       1.0000 0.60414  0.17352  0.14617  Biso   1.000  C
  C2       1.0000 0.39586  0.82648  0.85383  Biso   1.000  C
  C3       1.0000 0.10414  0.82648  0.35383  Biso   1.000  C
  C4       1.0000 0.89586  0.17352  0.64617  Biso   1.000  C
  C5       1.0000 0.46244  0.12886  0.13488  Biso   1.000  C
  C6       1.0000 0.53756  0.87114  0.86512  Biso   1.000  C
  C7       1.0000 0.96244  0.87114  0.36512  Biso   1.000  C
  C8       1.0000 0.03756  0.12886  0.63488  Biso   1.000  C
  C9       1.0000 0.38214  0.11787  0.06196  Biso   1.000  C
  C10      1.0000 0.61786  0.88213  0.93804  Biso   1.000  C
  C11      1.0000 0.88214  0.88213  0.43804  Biso   1.000  C
  C12      1.0000 0.11786  0.11787  0.56196  Biso   1.000  C
  C13      1.0000 0.44589  0.15081  0.00193  Biso   1.000  C
  C14      1.0000 0.55411  0.84919  0.99807  Biso   1.000  C
  C15      1.0000 0.94589  0.84919  0.49807  Biso   1.000  C
  C16      1.0000 0.05411  0.15081  0.50193  Biso   1.000  C
  C17      1.0000 0.87069  0.32446  0.89966  Biso   1.000  C
  C18      1.0000 0.12931  0.67554  0.10034  Biso   1.000  C
  C19      1.0000 0.37069  0.67554  0.60034  Biso   1.000  C
  C20      1.0000 0.62931  0.32446  0.39966  Biso   1.000  C
  C21      1.0000 0.01371  0.36543  0.90786  Biso   1.000  C
  C22      1.0000 0.98629  0.63457  0.09214  Biso   1.000  C
  C23      1.0000 0.51371  0.63457  0.59214  Biso   1.000  C
  C24      1.0000 0.48629  0.36543  0.40786  Biso   1.000  C
  C25      1.0000 0.09910  0.37183  0.97908  Biso   1.000  C
  C26      1.0000 0.90090  0.62817  0.02092  Biso   1.000  C
  C27      1.0000 0.59910  0.62817  0.52092  Biso   1.000  C
  C28      1.0000 0.40090  0.37183  0.47908  Biso   1.000  C
  C29      1.0000 0.03853  0.33747  0.03975  Biso   1.000  C
  C30      1.0000 0.96147  0.66253  0.96025  Biso   1.000  C
  C31      1.0000 0.53853  0.66253  0.46025  Biso   1.000  C
  C32      1.0000 0.46147  0.33747  0.53975  Biso   1.000  C
  C33      1.0000 0.82350  0.25595  0.09504  Biso   1.000  C
  C34      1.0000 0.17650  0.74405  0.90496  Biso   1.000  C
  C35      1.0000 0.32350  0.74405  0.40496  Biso   1.000  C
  C36      1.0000 0.67650  0.25595  0.59504  Biso   1.000  C
  C37      1.0000 0.66010  0.23739  0.95152  Biso   1.000  C
  C38      1.0000 0.33990  0.76261  0.04848  Biso   1.000  C
  C39      1.0000 0.16010  0.76261  0.54848  Biso   1.000  C
  C40      1.0000 0.83990  0.23739  0.45152  Biso   1.000  C
  C41      1.0000 0.59430  0.19878  0.01093  Biso   1.000  C
  C42      1.0000 0.40570  0.80122  0.98907  Biso   1.000  C
  C43      1.0000 0.09430  0.80122  0.48907  Biso   1.000  C
  C44      1.0000 0.90570  0.19878  0.51093  Biso   1.000  C
  C45      1.0000 0.80358  0.28560  0.96120  Biso   1.000  C
  C46      1.0000 0.19642  0.71440  0.03880  Biso   1.000  C
  C47      1.0000 0.30358  0.71440  0.53880  Biso   1.000  C
  C48      1.0000 0.69642  0.28560  0.46120  Biso   1.000  C
  C49      1.0000 0.88835  0.29340  0.03354  Biso   1.000  C
  C50      1.0000 0.11165  0.70660  0.96646  Biso   1.000  C
  C51      1.0000 0.38835  0.70660  0.46646  Biso   1.000  C
  C52      1.0000 0.61165  0.29340  0.53354  Biso   1.000  C
  C53      1.0000 0.67639  0.21018  0.08488  Biso   1.000  C
  C54      1.0000 0.32361  0.78982  0.91512  Biso   1.000  C
  C55      1.0000 0.17639  0.78982  0.41512  Biso   1.000  C
  C56      1.0000 0.82361  0.21018  0.58488  Biso   1.000  C
  C57      1.0000 0.97033  0.06157  0.11610  Biso   1.000  C
  C58      1.0000 0.02967  0.93843  0.88390  Biso   1.000  C
  C59      1.0000 0.47033  0.93843  0.38390  Biso   1.000  C
  C60      1.0000 0.52967  0.06157  0.61610  Biso   1.000  C
  C61      1.0000 0.03850  0.97009  0.12486  Biso   1.000  C
  C62      1.0000 0.96150  0.02991  0.87514  Biso   1.000  C
  C63      1.0000 0.53850  0.02991  0.37514  Biso   1.000  C
  C64      1.0000 0.46150  0.97009  0.62486  Biso   1.000  C
  C65      1.0000 0.13092  0.97739  0.19370  Biso   1.000  C
  C66      1.0000 0.86908  0.02261  0.80630  Biso   1.000  C
  C67      1.0000 0.63092  0.02261  0.30630  Biso   1.000  C
  C68      1.0000 0.36908  0.97739  0.69370  Biso   1.000  C
  C69      1.0000 0.15006  0.07512  0.25206  Biso   1.000  C
  C70      1.0000 0.84994  0.92488  0.74794  Biso   1.000  C
  C71      1.0000 0.65006  0.92488  0.24794  Biso   1.000  C
  C72      1.0000 0.34994  0.07512  0.75206  Biso   1.000  C
  C73      1.0000 0.01473  0.46777  0.36956  Biso   1.000  C
  C74      1.0000 0.98527  0.53223  0.63044  Biso   1.000  C
  C75      1.0000 0.51473  0.53223  0.13044  Biso   1.000  C
  C76      1.0000 0.48527  0.46777  0.86956  Biso   1.000  C
  C77      1.0000 0.93300  0.55647  0.36611  Biso   1.000  C
  C78      1.0000 0.06700  0.44353  0.63389  Biso   1.000  C
  C79      1.0000 0.43300  0.44353  0.13389  Biso   1.000  C
  C80      1.0000 0.56700  0.55647  0.86611  Biso   1.000  C
  C81      1.0000 0.84572  0.55191  0.29605  Biso   1.000  C
  C82      1.0000 0.15428  0.44809  0.70395  Biso   1.000  C
  C83      1.0000 0.34572  0.44809  0.20395  Biso   1.000  C
  C84      1.0000 0.65428  0.55191  0.79605  Biso   1.000  C
  C85      1.0000 0.84048  0.45755  0.23223  Biso   1.000  C
  C86      1.0000 0.15952  0.54245  0.76777  Biso   1.000  C
  C87      1.0000 0.34048  0.54245  0.26777  Biso   1.000  C
  C88      1.0000 0.65952  0.45755  0.73223  Biso   1.000  C
  C89      1.0000 0.91229  0.26178  0.17001  Biso   1.000  C
  C90      1.0000 0.08771  0.73822  0.82999  Biso   1.000  C
  C91      1.0000 0.41229  0.73822  0.32999  Biso   1.000  C
  C92      1.0000 0.58771  0.26178  0.67001  Biso   1.000  C
  C93      1.0000 0.09274  0.27387  0.30720  Biso   1.000  C
  C94      1.0000 0.90726  0.72613  0.69280  Biso   1.000  C
  C95      1.0000 0.59274  0.72613  0.19280  Biso   1.000  C
  C96      1.0000 0.40726  0.27387  0.80720  Biso   1.000  C
  C97      1.0000 0.92150  0.36135  0.23383  Biso   1.000  C
  C98      1.0000 0.07850  0.63865  0.76617  Biso   1.000  C
  C99      1.0000 0.42150  0.63865  0.26617  Biso   1.000  C
  C100     1.0000 0.57850  0.36135  0.73383  Biso   1.000  C
  C101     1.0000 0.98630  0.16640  0.17638  Biso   1.000  C
  C102     1.0000 0.01370  0.83360  0.82362  Biso   1.000  C
  C103     1.0000 0.48630  0.83360  0.32362  Biso   1.000  C
  C104     1.0000 0.51370  0.16640  0.67638  Biso   1.000  C
  C105     1.0000 0.01261  0.36707  0.30412  Biso   1.000  C
  C106     1.0000 0.98739  0.63293  0.69588  Biso   1.000  C
  C107     1.0000 0.51261  0.63293  0.19588  Biso   1.000  C
  C108     1.0000 0.48739  0.36707  0.80412  Biso   1.000  C
  C109     1.0000 0.07862  0.17339  0.24636  Biso   1.000  C
  C110     1.0000 0.92138  0.82661  0.75364  Biso   1.000  C
  C111     1.0000 0.57862  0.82661  0.25364  Biso   1.000  C
  C112     1.0000 0.42138  0.17339  0.74636  Biso   1.000  C
