data_image0
_cell_length_a       6.0881
_cell_length_b       8.4119
_cell_length_c       10.6561
_cell_angle_alpha    104.517
_cell_angle_beta     91.259
_cell_angle_gamma    92.359

_symmetry_space_group_name_H-M    "P 1"
_symmetry_int_tables_number       1

loop_
  _symmetry_equiv_pos_as_xyz
  'x, y, z'

loop_
  _atom_site_label
  _atom_site_occupancy
  _atom_site_fract_x
  _atom_site_fract_y
  _atom_site_fract_z
  _atom_site_thermal_displace_type
  _atom_site_B_iso_or_equiv
  _atom_site_type_symbol
  H1       1.0000 0.81975  0.26371  0.04367  Biso   1.000  H
  H2       1.0000 0.18025  0.73629  0.95633  Biso   1.000  H
  H3       1.0000 0.08834  0.95477  0.64298  Biso   1.000  H
  H4       1.0000 0.91166  0.04523  0.35702  Biso   1.000  H
  H5       1.0000 0.33976  0.85494  0.46588  Biso   1.000  H
  H6       1.0000 0.66024  0.14506  0.53412  Biso   1.000  H
  H7       1.0000 0.70131  0.75195  0.51127  Biso   1.000  H
  H8       1.0000 0.29869  0.24805  0.48873  Biso   1.000  H
  H9       1.0000 0.80886  0.75287  0.73807  Biso   1.000  H
  H10      1.0000 0.19114  0.24713  0.26193  Biso   1.000  H
  H11      1.0000 0.55814  0.85204  0.91370  Biso   1.000  H
  H12      1.0000 0.44186  0.14796  0.08630  Biso   1.000  H
  H13      1.0000 0.43194  0.27566  0.90913  Biso   1.000  H
  H14      1.0000 0.56806  0.72434  0.09087  Biso   1.000  H
  H15      1.0000 0.50572  0.48693  0.79146  Biso   1.000  H
  H16      1.0000 0.49428  0.51307  0.20854  Biso   1.000  H
  H17      1.0000 0.21279  0.56621  0.65949  Biso   1.000  H
  H18      1.0000 0.78721  0.43379  0.34051  Biso   1.000  H
  H19      1.0000 0.83945  0.43598  0.65011  Biso   1.000  H
  H20      1.0000 0.16055  0.56402  0.34989  Biso   1.000  H
  H21      1.0000 0.76074  0.22621  0.77114  Biso   1.000  H
  H22      1.0000 0.23926  0.77379  0.22886  Biso   1.000  H
  C1       1.0000 0.15120  0.96109  0.89924  Biso   1.000  C
  C2       1.0000 0.84880  0.03891  0.10076  Biso   1.000  C
  C3       1.0000 0.04390  0.11065  0.92264  Biso   1.000  C
  C4       1.0000 0.95610  0.88935  0.07736  Biso   1.000  C
  C5       1.0000 0.89540  0.14506  0.02257  Biso   1.000  C
  C6       1.0000 0.10460  0.85494  0.97743  Biso   1.000  C
  C7       1.0000 0.30560  0.91039  0.79128  Biso   1.000  C
  C8       1.0000 0.69440  0.08961  0.20872  Biso   1.000  C
  C9       1.0000 0.24730  0.91084  0.66435  Biso   1.000  C
  C10      1.0000 0.75270  0.08916  0.33565  Biso   1.000  C
  C11      1.0000 0.38790  0.85349  0.56449  Biso   1.000  C
  C12      1.0000 0.61210  0.14651  0.43551  Biso   1.000  C
  C13      1.0000 0.59070  0.79587  0.59025  Biso   1.000  C
  C14      1.0000 0.40930  0.20413  0.40975  Biso   1.000  C
  C15      1.0000 0.65020  0.79651  0.71600  Biso   1.000  C
  C16      1.0000 0.34980  0.20349  0.28400  Biso   1.000  C
  C17      1.0000 0.50890  0.85226  0.81492  Biso   1.000  C
  C18      1.0000 0.49110  0.14774  0.18508  Biso   1.000  C
  C19      1.0000 0.09030  0.23605  0.84883  Biso   1.000  C
  C20      1.0000 0.90970  0.76395  0.15117  Biso   1.000  C
  C21      1.0000 0.30000  0.31045  0.85198  Biso   1.000  C
  C22      1.0000 0.70000  0.68955  0.14802  Biso   1.000  C
  C23      1.0000 0.34140  0.42861  0.78558  Biso   1.000  C
  C24      1.0000 0.65860  0.57139  0.21442  Biso   1.000  C
  C25      1.0000 0.17840  0.47385  0.71299  Biso   1.000  C
  C26      1.0000 0.82160  0.52615  0.28701  Biso   1.000  C
  C27      1.0000 0.97000  0.40174  0.70856  Biso   1.000  C
  C28      1.0000 0.03000  0.59826  0.29144  Biso   1.000  C
  C29      1.0000 0.92500  0.28486  0.77663  Biso   1.000  C
  C30      1.0000 0.07500  0.71514  0.22337  Biso   1.000  C
