data_image0
_cell_length_a       6.0754
_cell_length_b       7.6324
_cell_length_c       14.5662
_cell_angle_alpha    97.997
_cell_angle_beta     97.179
_cell_angle_gamma    90.526

_symmetry_space_group_name_H-M    "P 1"
_symmetry_int_tables_number       1

loop_
  _symmetry_equiv_pos_as_xyz
  'x, y, z'

loop_
  _atom_site_label
  _atom_site_occupancy
  _atom_site_fract_x
  _atom_site_fract_y
  _atom_site_fract_z
  _atom_site_thermal_displace_type
  _atom_site_B_iso_or_equiv
  _atom_site_type_symbol
  H1       1.0000 0.48691  0.07605  0.49075  Biso   1.000  H
  H2       1.0000 0.62510  0.05311  0.65243  Biso   1.000  H
  H3       1.0000 0.56929  0.08970  0.82064  Biso   1.000  H
  H4       1.0000 0.33465  0.19557  0.94350  Biso   1.000  H
  H5       1.0000 0.97397  0.32904  0.90306  Biso   1.000  H
  H6       1.0000 0.83964  0.35549  0.74004  Biso   1.000  H
  H7       1.0000 0.88824  0.30673  0.57474  Biso   1.000  H
  H8       1.0000 0.76811  0.32641  0.42731  Biso   1.000  H
  H9       1.0000 0.54999  0.34817  0.26562  Biso   1.000  H
  H10      1.0000 0.49367  0.31466  0.10283  Biso   1.000  H
  H11      1.0000 0.72293  0.18047  0.99738  Biso   1.000  H
  H12      1.0000 0.06020  0.04944  0.02609  Biso   1.000  H
  H13      1.0000 0.26605  0.01767  0.16721  Biso   1.000  H
  H14      1.0000 0.35191  0.05300  0.34737  Biso   1.000  H
  H15      1.0000 0.37035  0.58634  0.53372  Biso   1.000  H
  H16      1.0000 0.32692  0.55463  0.69524  Biso   1.000  H
  H17      1.0000 0.46750  0.60115  0.86169  Biso   1.000  H
  H18      1.0000 0.83690  0.74681  0.91685  Biso   1.000  H
  H19      1.0000 0.07321  0.83101  0.80276  Biso   1.000  H
  H20      1.0000 0.12600  0.84769  0.63739  Biso   1.000  H
  H21      1.0000 0.97661  0.81510  0.47382  Biso   1.000  H
  H22      1.0000 0.84105  0.82416  0.33393  Biso   1.000  H
  H23      1.0000 0.75770  0.84269  0.15850  Biso   1.000  H
  H24      1.0000 0.55042  0.79594  0.01204  Biso   1.000  H
  H25      1.0000 0.20538  0.65879  0.96668  Biso   1.000  H
  H26      1.0000 0.96502  0.54239  0.05659  Biso   1.000  H
  H27      1.0000 0.01562  0.52575  0.21671  Biso   1.000  H
  H28      1.0000 0.23540  0.56403  0.38271  Biso   1.000  H
  C1       1.0000 0.38520  0.12160  0.54540  Biso   1.000  C
  C2       1.0000 0.46300  0.10840  0.63530  Biso   1.000  C
  C3       1.0000 0.33560  0.16500  0.70800  Biso   1.000  C
  C4       1.0000 0.40940  0.14900  0.80360  Biso   1.000  C
  C5       1.0000 0.27910  0.20750  0.87050  Biso   1.000  C
  C6       1.0000 0.07420  0.28250  0.84800  Biso   1.000  C
  C7       1.0000 0.00020  0.29780  0.75770  Biso   1.000  C
  C8       1.0000 0.12550  0.23930  0.68460  Biso   1.000  C
  C9       1.0000 0.05090  0.25080  0.59080  Biso   1.000  C
  C10      1.0000 0.17290  0.19150  0.52000  Biso   1.000  C
  C11      1.0000 0.09100  0.19190  0.42080  Biso   1.000  C
  C12      1.0000 0.88780  0.26010  0.38580  Biso   1.000  C
  C13      1.0000 0.86050  0.23240  0.28890  Biso   1.000  C
  C14      1.0000 0.68150  0.28290  0.23010  Biso   1.000  C
  C15      1.0000 0.64720  0.26150  0.13380  Biso   1.000  C
  C16      1.0000 0.78510  0.18180  0.07120  Biso   1.000  C
  C17      1.0000 0.98690  0.10440  0.08830  Biso   1.000  C
  C18      1.0000 0.10910  0.08480  0.17180  Biso   1.000  C
  C19      1.0000 0.06200  0.13980  0.26160  Biso   1.000  C
  C20      1.0000 0.19310  0.11780  0.34480  Biso   1.000  C
  C21      1.0000 0.53700  0.64360  0.55530  Biso   1.000  C
  C22      1.0000 0.61930  0.66350  0.65060  Biso   1.000  C
  C23      1.0000 0.49090  0.61500  0.71890  Biso   1.000  C
  C24      1.0000 0.56910  0.64250  0.81160  Biso   1.000  C
  C25      1.0000 0.77790  0.72260  0.84220  Biso   1.000  C
  C26      1.0000 0.90950  0.76900  0.77970  Biso   1.000  C
  C27      1.0000 0.83320  0.74000  0.68210  Biso   1.000  C
  C28      1.0000 0.95990  0.79070  0.61470  Biso   1.000  C
  C29      1.0000 0.87560  0.77200  0.52370  Biso   1.000  C
  C30      1.0000 0.65900  0.70090  0.49070  Biso   1.000  C
  C31      1.0000 0.56890  0.69490  0.39170  Biso   1.000  C
  C32      1.0000 0.67710  0.76100  0.32380  Biso   1.000  C
  C33      1.0000 0.54280  0.73200  0.23830  Biso   1.000  C
  C34      1.0000 0.59620  0.77640  0.15470  Biso   1.000  C
  C35      1.0000 0.47290  0.74710  0.06760  Biso   1.000  C
  C36      1.0000 0.26690  0.66760  0.04100  Biso   1.000  C
  C37      1.0000 0.12250  0.59720  0.09440  Biso   1.000  C
  C38      1.0000 0.15230  0.58670  0.18940  Biso   1.000  C
  C39      1.0000 0.33360  0.64420  0.25420  Biso   1.000  C
  C40      1.0000 0.35960  0.62600  0.34910  Biso   1.000  C
