data_image0
_cell_length_a       6.5
_cell_length_b       7.95
_cell_length_c       12.12
_cell_angle_alpha    100.5
_cell_angle_beta     90
_cell_angle_gamma    90

_symmetry_space_group_name_H-M    "P 1"
_symmetry_int_tables_number       1

loop_
  _symmetry_equiv_pos_as_xyz
  'x, y, z'

loop_
  _atom_site_label
  _atom_site_occupancy
  _atom_site_fract_x
  _atom_site_fract_y
  _atom_site_fract_z
  _atom_site_thermal_displace_type
  _atom_site_B_iso_or_equiv
  _atom_site_type_symbol
  C1       1.0000 0.05330  0.88100  0.62990  Biso   1.000  C
  C2       1.0000 0.55330  0.11900  0.37010  Biso   1.000  C
  C3       1.0000 0.99270  0.81150  0.51080  Biso   1.000  C
  C4       1.0000 0.49270  0.18850  0.48920  Biso   1.000  C
  C5       1.0000 0.13440  0.83530  0.42400  Biso   1.000  C
  C6       1.0000 0.63440  0.16470  0.57600  Biso   1.000  C
  C7       1.0000 0.73830  0.67120  0.35660  Biso   1.000  C
  C8       1.0000 0.23830  0.32880  0.64340  Biso   1.000  C
  C9       1.0000 0.79200  0.72080  0.48740  Biso   1.000  C
  C10      1.0000 0.29200  0.27920  0.51260  Biso   1.000  C
  C11      1.0000 0.66110  0.69750  0.56380  Biso   1.000  C
  C12      1.0000 0.16110  0.30250  0.43620  Biso   1.000  C
  C13      1.0000 0.07020  0.78590  0.31840  Biso   1.000  C
  C14      1.0000 0.57020  0.21410  0.68160  Biso   1.000  C
  C15      1.0000 0.88820  0.71270  0.27910  Biso   1.000  C
  C16      1.0000 0.38820  0.28730  0.72090  Biso   1.000  C
  C17      1.0000 0.86930  0.67250  0.15500  Biso   1.000  C
  C18      1.0000 0.36930  0.32750  0.84500  Biso   1.000  C
  C19      1.0000 0.67600  0.58530  0.12390  Biso   1.000  C
  C20      1.0000 0.17600  0.41470  0.87610  Biso   1.000  C
  C21      1.0000 0.53280  0.54880  0.20380  Biso   1.000  C
  C22      1.0000 0.03280  0.45120  0.79620  Biso   1.000  C
  C23      1.0000 0.56800  0.59090  0.31930  Biso   1.000  C
  C24      1.0000 0.06800  0.40910  0.68070  Biso   1.000  C
  C25      1.0000 0.70750  0.76510  0.67510  Biso   1.000  C
  C26      1.0000 0.20750  0.23490  0.32490  Biso   1.000  C
  C27      1.0000 0.53740  0.73640  0.75880  Biso   1.000  C
  C28      1.0000 0.03740  0.26360  0.24120  Biso   1.000  C
  C29      1.0000 0.58570  0.80490  0.86820  Biso   1.000  C
  C30      1.0000 0.08570  0.19510  0.13180  Biso   1.000  C
  C31      1.0000 0.76740  0.88430  0.89430  Biso   1.000  C
  C32      1.0000 0.26740  0.11570  0.10570  Biso   1.000  C
  C33      1.0000 0.90120  0.90990  0.82390  Biso   1.000  C
  C34      1.0000 0.40120  0.09010  0.17610  Biso   1.000  C
  C35      1.0000 0.91510  0.84620  0.71240  Biso   1.000  C
  C36      1.0000 0.41510  0.15380  0.28760  Biso   1.000  C
  H1       1.0000 0.19830  0.94839  0.64915  Biso   1.000  H
  H2       1.0000 0.28310  0.89459  0.44544  Biso   1.000  H
  H3       1.0000 0.17888  0.80759  0.25336  Biso   1.000  H
  H4       1.0000 0.03624  0.98581  0.85831  Biso   1.000  H
  H5       1.0000 0.79285  0.93948  0.98273  Biso   1.000  H
  H6       1.0000 0.39545  0.67253  0.72829  Biso   1.000  H
  H7       1.0000 0.51272  0.63538  0.54380  Biso   1.000  H
  H8       1.0000 0.47674  0.79179  0.93480  Biso   1.000  H
  H9       1.0000 0.45130  0.55525  0.37527  Biso   1.000  H
  H10      1.0000 0.98634  0.70466  0.09853  Biso   1.000  H
  H11      1.0000 0.39075  0.48366  0.17353  Biso   1.000  H
  H12      1.0000 0.63762  0.54707  0.03517  Biso   1.000  H
  H13      1.0000 0.69830  0.05161  0.35085  Biso   1.000  H
  H14      1.0000 0.78310  0.10541  0.55456  Biso   1.000  H
  H15      1.0000 0.53624  0.01419  0.14169  Biso   1.000  H
  H16      1.0000 0.01272  0.36462  0.45620  Biso   1.000  H
  H17      1.0000 0.67888  0.19241  0.74664  Biso   1.000  H
  H18      1.0000 0.29285  0.06052  0.01727  Biso   1.000  H
  H19      1.0000 0.48634  0.29534  0.90147  Biso   1.000  H
  H20      1.0000 0.13762  0.45293  0.96483  Biso   1.000  H
  H21      1.0000 0.89545  0.32747  0.27171  Biso   1.000  H
  H22      1.0000 0.95130  0.44475  0.62473  Biso   1.000  H
  H23      1.0000 0.97674  0.20821  0.06520  Biso   1.000  H
  H24      1.0000 0.89075  0.51634  0.82647  Biso   1.000  H
