data_image0
_cell_length_a       7.71
_cell_length_b       13.17
_cell_length_c       18.1924
_cell_angle_alpha    101.009
_cell_angle_beta     90
_cell_angle_gamma    90

_symmetry_space_group_name_H-M    "P 1"
_symmetry_int_tables_number       1

loop_
  _symmetry_equiv_pos_as_xyz
  'x, y, z'

loop_
  _atom_site_label
  _atom_site_occupancy
  _atom_site_fract_x
  _atom_site_fract_y
  _atom_site_fract_z
  _atom_site_thermal_displace_type
  _atom_site_B_iso_or_equiv
  _atom_site_type_symbol
  H1       1.0000 0.76641  0.27021  0.84748  Biso   1.000  H
  H2       1.0000 0.23359  0.72979  0.15252  Biso   1.000  H
  H3       1.0000 0.26641  0.22979  0.65252  Biso   1.000  H
  H4       1.0000 0.73359  0.77021  0.34748  Biso   1.000  H
  H5       1.0000 0.86897  0.51265  0.53006  Biso   1.000  H
  H6       1.0000 0.13103  0.48735  0.46994  Biso   1.000  H
  H7       1.0000 0.36897  0.98735  0.96994  Biso   1.000  H
  H8       1.0000 0.63103  0.01265  0.03006  Biso   1.000  H
  H9       1.0000 0.97063  0.33304  0.50015  Biso   1.000  H
  H10      1.0000 0.02937  0.66696  0.49985  Biso   1.000  H
  H11      1.0000 0.47063  0.16696  0.99985  Biso   1.000  H
  H12      1.0000 0.52937  0.83304  0.00015  Biso   1.000  H
  H13      1.0000 0.94140  0.22058  0.59495  Biso   1.000  H
  H14      1.0000 0.05860  0.77942  0.40505  Biso   1.000  H
  H15      1.0000 0.44140  0.27942  0.90505  Biso   1.000  H
  H16      1.0000 0.55860  0.72058  0.09495  Biso   1.000  H
  H17      1.0000 0.79816  0.78248  0.87259  Biso   1.000  H
  H18      1.0000 0.20184  0.21752  0.12741  Biso   1.000  H
  H19      1.0000 0.29816  0.71752  0.62741  Biso   1.000  H
  H20      1.0000 0.70184  0.28248  0.37259  Biso   1.000  H
  H21      1.0000 0.80741  0.97001  0.90141  Biso   1.000  H
  H22      1.0000 0.19259  0.02999  0.09859  Biso   1.000  H
  H23      1.0000 0.30741  0.52999  0.59859  Biso   1.000  H
  H24      1.0000 0.69259  0.47001  0.40141  Biso   1.000  H
  H25      1.0000 0.87779  0.19986  0.72210  Biso   1.000  H
  H26      1.0000 0.12221  0.80014  0.27790  Biso   1.000  H
  H27      1.0000 0.37779  0.30014  0.77790  Biso   1.000  H
  H28      1.0000 0.62221  0.69986  0.22210  Biso   1.000  H
  H29      1.0000 0.73176  0.07525  0.80723  Biso   1.000  H
  H30      1.0000 0.26824  0.92475  0.19277  Biso   1.000  H
  H31      1.0000 0.23176  0.42475  0.69277  Biso   1.000  H
  H32      1.0000 0.76824  0.57525  0.30723  Biso   1.000  H
  H33      1.0000 0.61801  0.54503  0.51694  Biso   1.000  H
  H34      1.0000 0.38199  0.45497  0.48306  Biso   1.000  H
  H35      1.0000 0.11801  0.95497  0.98306  Biso   1.000  H
  H36      1.0000 0.88199  0.04503  0.01694  Biso   1.000  H
  H37      1.0000 0.51955  0.64618  0.42583  Biso   1.000  H
  H38      1.0000 0.48045  0.35382  0.57417  Biso   1.000  H
  H39      1.0000 0.01955  0.85382  0.07417  Biso   1.000  H
  H40      1.0000 0.98045  0.14618  0.92583  Biso   1.000  H
  H41      1.0000 0.52568  0.83848  0.45883  Biso   1.000  H
  H42      1.0000 0.47432  0.16152  0.54117  Biso   1.000  H
  H43      1.0000 0.02568  0.66152  0.04117  Biso   1.000  H
  H44      1.0000 0.97432  0.33848  0.95883  Biso   1.000  H
  H45      1.0000 0.58133  0.99782  0.55050  Biso   1.000  H
  H46      1.0000 0.41867  0.00218  0.44950  Biso   1.000  H
  H47      1.0000 0.08133  0.50218  0.94950  Biso   1.000  H
  H48      1.0000 0.91867  0.49782  0.05050  Biso   1.000  H
  H49      1.0000 0.65340  0.08351  0.67772  Biso   1.000  H
  H50      1.0000 0.34660  0.91649  0.32228  Biso   1.000  H
  H51      1.0000 0.15340  0.41649  0.82228  Biso   1.000  H
  H52      1.0000 0.84660  0.58351  0.17772  Biso   1.000  H
  H53      1.0000 0.64914  0.41690  0.93965  Biso   1.000  H
  H54      1.0000 0.35086  0.58310  0.06035  Biso   1.000  H
  H55      1.0000 0.14914  0.08310  0.56035  Biso   1.000  H
  H56      1.0000 0.85086  0.91690  0.43965  Biso   1.000  H
  H57      1.0000 0.54756  0.59743  0.96923  Biso   1.000  H
  H58      1.0000 0.45244  0.40257  0.03077  Biso   1.000  H
  H59      1.0000 0.04756  0.90257  0.53077  Biso   1.000  H
  H60      1.0000 0.95244  0.09743  0.46923  Biso   1.000  H
  H61      1.0000 0.57035  0.70937  0.87796  Biso   1.000  H
  H62      1.0000 0.42965  0.29063  0.12204  Biso   1.000  H
  H63      1.0000 0.07035  0.79063  0.62204  Biso   1.000  H
  H64      1.0000 0.92965  0.20937  0.37796  Biso   1.000  H
  C1       1.0000 0.77220  0.31880  0.80520  Biso   1.000  C
  C2       1.0000 0.22780  0.68120  0.19480  Biso   1.000  C
  C3       1.0000 0.27220  0.18120  0.69480  Biso   1.000  C
  C4       1.0000 0.72780  0.81880  0.30520  Biso   1.000  C
  C5       1.0000 0.69070  0.59550  0.79230  Biso   1.000  C
  C6       1.0000 0.30930  0.40450  0.20770  Biso   1.000  C
  C7       1.0000 0.19070  0.90450  0.70770  Biso   1.000  C
  C8       1.0000 0.80930  0.09550  0.29230  Biso   1.000  C
  C9       1.0000 0.71290  0.66120  0.73630  Biso   1.000  C
  C10      1.0000 0.28710  0.33880  0.26370  Biso   1.000  C
  C11      1.0000 0.21290  0.83880  0.76370  Biso   1.000  C
  C12      1.0000 0.78710  0.16120  0.23630  Biso   1.000  C
  C13      1.0000 0.72590  0.61440  0.66190  Biso   1.000  C
  C14      1.0000 0.27410  0.38560  0.33810  Biso   1.000  C
  C15      1.0000 0.22590  0.88560  0.83810  Biso   1.000  C
  C16      1.0000 0.77410  0.11440  0.16190  Biso   1.000  C
  C17      1.0000 0.78250  0.50630  0.64150  Biso   1.000  C
  C18      1.0000 0.21750  0.49370  0.35850  Biso   1.000  C
  C19      1.0000 0.28250  0.99370  0.85850  Biso   1.000  C
  C20      1.0000 0.71750  0.00630  0.14150  Biso   1.000  C
  C21      1.0000 0.85420  0.46430  0.57170  Biso   1.000  C
  C22      1.0000 0.14580  0.53570  0.42830  Biso   1.000  C
  C23      1.0000 0.35420  0.03570  0.92830  Biso   1.000  C
  C24      1.0000 0.64580  0.96430  0.07170  Biso   1.000  C
  C25      1.0000 0.91380  0.36270  0.55490  Biso   1.000  C
  C26      1.0000 0.08620  0.63730  0.44510  Biso   1.000  C
  C27      1.0000 0.41380  0.13730  0.94510  Biso   1.000  C
  C28      1.0000 0.58620  0.86270  0.05490  Biso   1.000  C
  C29      1.0000 0.90070  0.30130  0.60760  Biso   1.000  C
  C30      1.0000 0.09930  0.69870  0.39240  Biso   1.000  C
  C31      1.0000 0.40070  0.19870  0.89240  Biso   1.000  C
  C32      1.0000 0.59930  0.80130  0.10760  Biso   1.000  C
  C33      1.0000 0.71930  0.77330  0.75720  Biso   1.000  C
  C34      1.0000 0.28070  0.22670  0.24280  Biso   1.000  C
  C35      1.0000 0.21930  0.72670  0.74280  Biso   1.000  C
  C36      1.0000 0.78070  0.27330  0.25720  Biso   1.000  C
  C37      1.0000 0.76270  0.82510  0.82940  Biso   1.000  C
  C38      1.0000 0.23730  0.17490  0.17060  Biso   1.000  C
  C39      1.0000 0.26270  0.67490  0.67060  Biso   1.000  C
  C40      1.0000 0.73730  0.32510  0.32940  Biso   1.000  C
  C41      1.0000 0.77120  0.93200  0.84500  Biso   1.000  C
  C42      1.0000 0.22880  0.06800  0.15500  Biso   1.000  C
  C43      1.0000 0.27120  0.56800  0.65500  Biso   1.000  C
  C44      1.0000 0.72880  0.43200  0.34500  Biso   1.000  C
  C45      1.0000 0.83130  0.27940  0.73610  Biso   1.000  C
  C46      1.0000 0.16870  0.72060  0.26390  Biso   1.000  C
  C47      1.0000 0.33130  0.22060  0.76390  Biso   1.000  C
  C48      1.0000 0.66870  0.77940  0.23610  Biso   1.000  C
  C49      1.0000 0.73280  0.99110  0.79240  Biso   1.000  C
  C50      1.0000 0.26720  0.00890  0.20760  Biso   1.000  C
  C51      1.0000 0.23280  0.50890  0.70760  Biso   1.000  C
  C52      1.0000 0.76720  0.49110  0.29240  Biso   1.000  C
  C53      1.0000 0.69510  0.94210  0.72020  Biso   1.000  C
  C54      1.0000 0.30490  0.05790  0.27980  Biso   1.000  C
  C55      1.0000 0.19510  0.55790  0.77980  Biso   1.000  C
  C56      1.0000 0.80490  0.44210  0.22020  Biso   1.000  C
  C57      1.0000 0.69440  0.83190  0.70070  Biso   1.000  C
  C58      1.0000 0.30560  0.16810  0.29930  Biso   1.000  C
  C59      1.0000 0.19440  0.66810  0.79930  Biso   1.000  C
  C60      1.0000 0.80560  0.33190  0.20070  Biso   1.000  C
  C61      1.0000 0.66240  0.78210  0.62500  Biso   1.000  C
  C62      1.0000 0.33760  0.21790  0.37500  Biso   1.000  C
  C63      1.0000 0.16240  0.71790  0.87500  Biso   1.000  C
  C64      1.0000 0.83760  0.28210  0.12500  Biso   1.000  C
  C65      1.0000 0.67570  0.67360  0.60440  Biso   1.000  C
  C66      1.0000 0.32430  0.32640  0.39560  Biso   1.000  C
  C67      1.0000 0.17570  0.82640  0.89560  Biso   1.000  C
  C68      1.0000 0.82430  0.17360  0.10440  Biso   1.000  C
  C69      1.0000 0.62240  0.62890  0.53210  Biso   1.000  C
  C70      1.0000 0.37760  0.37110  0.46790  Biso   1.000  C
  C71      1.0000 0.12240  0.87110  0.96790  Biso   1.000  C
  C72      1.0000 0.87760  0.12890  0.03210  Biso   1.000  C
  C73      1.0000 0.56560  0.68520  0.48060  Biso   1.000  C
  C74      1.0000 0.43440  0.31480  0.51940  Biso   1.000  C
  C75      1.0000 0.06560  0.81480  0.01940  Biso   1.000  C
  C76      1.0000 0.93440  0.18520  0.98060  Biso   1.000  C
  C77      1.0000 0.56660  0.79240  0.49960  Biso   1.000  C
  C78      1.0000 0.43340  0.20760  0.50040  Biso   1.000  C
  C79      1.0000 0.06660  0.70760  0.00040  Biso   1.000  C
  C80      1.0000 0.93340  0.29240  0.99960  Biso   1.000  C
  C81      1.0000 0.61270  0.84220  0.57110  Biso   1.000  C
  C82      1.0000 0.38730  0.15780  0.42890  Biso   1.000  C
  C83      1.0000 0.11270  0.65780  0.92890  Biso   1.000  C
  C84      1.0000 0.88730  0.34220  0.07110  Biso   1.000  C
  C85      1.0000 0.61440  0.95250  0.59280  Biso   1.000  C
  C86      1.0000 0.38560  0.04750  0.40720  Biso   1.000  C
  C87      1.0000 0.11440  0.54750  0.90720  Biso   1.000  C
  C88      1.0000 0.88560  0.45250  0.09280  Biso   1.000  C
  C89      1.0000 0.83650  0.34110  0.67920  Biso   1.000  C
  C90      1.0000 0.16350  0.65890  0.32080  Biso   1.000  C
  C91      1.0000 0.33650  0.15890  0.82080  Biso   1.000  C
  C92      1.0000 0.66350  0.84110  0.17920  Biso   1.000  C
  C93      1.0000 0.65460  0.99930  0.66230  Biso   1.000  C
  C94      1.0000 0.34540  0.00070  0.33770  Biso   1.000  C
  C95      1.0000 0.15460  0.50070  0.83770  Biso   1.000  C
  C96      1.0000 0.84540  0.49930  0.16230  Biso   1.000  C
  C97      1.0000 0.78300  0.44560  0.69780  Biso   1.000  C
  C98      1.0000 0.21700  0.55440  0.30220  Biso   1.000  C
  C99      1.0000 0.28300  0.05440  0.80220  Biso   1.000  C
  C100     1.0000 0.71700  0.94560  0.19780  Biso   1.000  C
  C101     1.0000 0.72910  0.48820  0.77180  Biso   1.000  C
  C102     1.0000 0.27090  0.51180  0.22820  Biso   1.000  C
  C103     1.0000 0.22910  0.01180  0.72820  Biso   1.000  C
  C104     1.0000 0.77090  0.98820  0.27180  Biso   1.000  C
  C105     1.0000 0.71550  0.42410  0.82670  Biso   1.000  C
  C106     1.0000 0.28450  0.57590  0.17330  Biso   1.000  C
  C107     1.0000 0.21550  0.07590  0.67330  Biso   1.000  C
  C108     1.0000 0.78450  0.92410  0.32670  Biso   1.000  C
  C109     1.0000 0.65490  0.46580  0.89760  Biso   1.000  C
  C110     1.0000 0.34510  0.53420  0.10240  Biso   1.000  C
  C111     1.0000 0.15490  0.03420  0.60240  Biso   1.000  C
  C112     1.0000 0.84510  0.96580  0.39760  Biso   1.000  C
  C113     1.0000 0.60310  0.56640  0.91450  Biso   1.000  C
  C114     1.0000 0.39690  0.43360  0.08550  Biso   1.000  C
  C115     1.0000 0.10310  0.93360  0.58550  Biso   1.000  C
  C116     1.0000 0.89690  0.06640  0.41450  Biso   1.000  C
  C117     1.0000 0.61910  0.63080  0.86330  Biso   1.000  C
  C118     1.0000 0.38090  0.36920  0.13670  Biso   1.000  C
  C119     1.0000 0.11910  0.86920  0.63670  Biso   1.000  C
  C120     1.0000 0.88090  0.13080  0.36330  Biso   1.000  C
