data_image0
_cell_length_a       7.1709
_cell_length_b       8.5496
_cell_length_c       16.7981
_cell_angle_alpha    90
_cell_angle_beta     92.416
_cell_angle_gamma    90

_symmetry_space_group_name_H-M    "P 1"
_symmetry_int_tables_number       1

loop_
  _symmetry_equiv_pos_as_xyz
  'x, y, z'

loop_
  _atom_site_label
  _atom_site_occupancy
  _atom_site_fract_x
  _atom_site_fract_y
  _atom_site_fract_z
  _atom_site_thermal_displace_type
  _atom_site_B_iso_or_equiv
  _atom_site_type_symbol
  H1       1.0000 0.44657  0.67576  0.50516  Biso   1.000  H
  H2       1.0000 0.55343  0.32424  0.49484  Biso   1.000  H
  H3       1.0000 0.05343  0.17576  0.49484  Biso   1.000  H
  H4       1.0000 0.94657  0.82424  0.50516  Biso   1.000  H
  H5       1.0000 0.54067  0.67853  0.36764  Biso   1.000  H
  H6       1.0000 0.45933  0.32147  0.63236  Biso   1.000  H
  H7       1.0000 0.95933  0.17853  0.63236  Biso   1.000  H
  H8       1.0000 0.04067  0.82147  0.36764  Biso   1.000  H
  H9       1.0000 0.74945  0.33698  0.24265  Biso   1.000  H
  H10      1.0000 0.25055  0.66302  0.75735  Biso   1.000  H
  H11      1.0000 0.75055  0.83698  0.75735  Biso   1.000  H
  H12      1.0000 0.24945  0.16302  0.24265  Biso   1.000  H
  H13      1.0000 0.63912  0.32998  0.37757  Biso   1.000  H
  H14      1.0000 0.36088  0.67002  0.62243  Biso   1.000  H
  H15      1.0000 0.86088  0.82998  0.62243  Biso   1.000  H
  H16      1.0000 0.13912  0.17002  0.37757  Biso   1.000  H
  H17      1.0000 0.54954  0.65484  0.19934  Biso   1.000  H
  H18      1.0000 0.45046  0.34516  0.80066  Biso   1.000  H
  H19      1.0000 0.95046  0.15484  0.80066  Biso   1.000  H
  H20      1.0000 0.04954  0.84516  0.19934  Biso   1.000  H
  H21      1.0000 0.48999  0.59641  0.05627  Biso   1.000  H
  H22      1.0000 0.51001  0.40359  0.94373  Biso   1.000  H
  H23      1.0000 0.01001  0.09641  0.94373  Biso   1.000  H
  H24      1.0000 0.98999  0.90359  0.05627  Biso   1.000  H
  H25      1.0000 0.20056  0.45897  0.01033  Biso   1.000  H
  H26      1.0000 0.79944  0.54103  0.98967  Biso   1.000  H
  H27      1.0000 0.29944  0.95897  0.98967  Biso   1.000  H
  H28      1.0000 0.70056  0.04103  0.01033  Biso   1.000  H
  H29      1.0000 0.96521  0.38377  0.10603  Biso   1.000  H
  H30      1.0000 0.03479  0.61623  0.89397  Biso   1.000  H
  H31      1.0000 0.53479  0.88377  0.89397  Biso   1.000  H
  H32      1.0000 0.46521  0.11623  0.10603  Biso   1.000  H
  C1       1.0000 0.22550  0.48550  0.07340  Biso   1.000  C
  C2       1.0000 0.77450  0.51450  0.92660  Biso   1.000  C
  C3       1.0000 0.27450  0.98550  0.92660  Biso   1.000  C
  C4       1.0000 0.72550  0.01450  0.07340  Biso   1.000  C
  C5       1.0000 0.38810  0.56100  0.09910  Biso   1.000  C
  C6       1.0000 0.61190  0.43900  0.90090  Biso   1.000  C
  C7       1.0000 0.11190  0.06100  0.90090  Biso   1.000  C
  C8       1.0000 0.88810  0.93900  0.09910  Biso   1.000  C
  C9       1.0000 0.09250  0.44340  0.12720  Biso   1.000  C
  C10      1.0000 0.90750  0.55660  0.87280  Biso   1.000  C
  C11      1.0000 0.40750  0.94340  0.87280  Biso   1.000  C
  C12      1.0000 0.59250  0.05660  0.12720  Biso   1.000  C
  C13      1.0000 0.42140  0.59490  0.17970  Biso   1.000  C
  C14      1.0000 0.57860  0.40510  0.82030  Biso   1.000  C
  C15      1.0000 0.07860  0.09490  0.82030  Biso   1.000  C
  C16      1.0000 0.92140  0.90510  0.17970  Biso   1.000  C
  C17      1.0000 0.12260  0.47580  0.20692  Biso   1.000  C
  C18      1.0000 0.87740  0.52420  0.79308  Biso   1.000  C
  C19      1.0000 0.37740  0.97580  0.79308  Biso   1.000  C
  C20      1.0000 0.62260  0.02420  0.20692  Biso   1.000  C
  C21      1.0000 0.29130  0.55130  0.23360  Biso   1.000  C
  C22      1.0000 0.70870  0.44870  0.76640  Biso   1.000  C
  C23      1.0000 0.20870  0.05130  0.76640  Biso   1.000  C
  C24      1.0000 0.79130  0.94870  0.23360  Biso   1.000  C
  C25      1.0000 0.01050  0.44880  0.27694  Biso   1.000  C
  C26      1.0000 0.98950  0.55120  0.72306  Biso   1.000  C
  C27      1.0000 0.48950  0.94880  0.72306  Biso   1.000  C
  C28      1.0000 0.51050  0.05120  0.27694  Biso   1.000  C
  C29      1.0000 0.28790  0.56970  0.32087  Biso   1.000  C
  C30      1.0000 0.71210  0.43030  0.67913  Biso   1.000  C
  C31      1.0000 0.21210  0.06970  0.67913  Biso   1.000  C
  C32      1.0000 0.78790  0.93030  0.32087  Biso   1.000  C
  C33      1.0000 0.83980  0.38420  0.29062  Biso   1.000  C
  C34      1.0000 0.16020  0.61580  0.70938  Biso   1.000  C
  C35      1.0000 0.66020  0.88420  0.70938  Biso   1.000  C
  C36      1.0000 0.33980  0.11580  0.29062  Biso   1.000  C
  C37      1.0000 0.11650  0.50600  0.34308  Biso   1.000  C
  C38      1.0000 0.88350  0.49400  0.65692  Biso   1.000  C
  C39      1.0000 0.38350  0.00600  0.65692  Biso   1.000  C
  C40      1.0000 0.61650  0.99400  0.34308  Biso   1.000  C
  C41      1.0000 0.40510  0.62960  0.38046  Biso   1.000  C
  C42      1.0000 0.59490  0.37040  0.61954  Biso   1.000  C
  C43      1.0000 0.09490  0.12960  0.61954  Biso   1.000  C
  C44      1.0000 0.90510  0.87040  0.38046  Biso   1.000  C
  C45      1.0000 0.77650  0.37980  0.36934  Biso   1.000  C
  C46      1.0000 0.22350  0.62020  0.63066  Biso   1.000  C
  C47      1.0000 0.72350  0.87980  0.63066  Biso   1.000  C
  C48      1.0000 0.27650  0.12020  0.36934  Biso   1.000  C
  C49      1.0000 0.05880  0.50230  0.42113  Biso   1.000  C
  C50      1.0000 0.94120  0.49770  0.57887  Biso   1.000  C
  C51      1.0000 0.44120  0.00230  0.57887  Biso   1.000  C
  C52      1.0000 0.55880  0.99770  0.42113  Biso   1.000  C
  C53      1.0000 0.35010  0.62720  0.46002  Biso   1.000  C
  C54      1.0000 0.64990  0.37280  0.53998  Biso   1.000  C
  C55      1.0000 0.14990  0.12720  0.53998  Biso   1.000  C
  C56      1.0000 0.85010  0.87280  0.46002  Biso   1.000  C
  C57      1.0000 0.88020  0.43720  0.43523  Biso   1.000  C
  C58      1.0000 0.11980  0.56280  0.56477  Biso   1.000  C
  C59      1.0000 0.61980  0.93720  0.56477  Biso   1.000  C
  C60      1.0000 0.38020  0.06280  0.43523  Biso   1.000  C
  C61      1.0000 0.18110  0.56540  0.48253  Biso   1.000  C
  C62      1.0000 0.81890  0.43460  0.51747  Biso   1.000  C
  C63      1.0000 0.31890  0.06540  0.51747  Biso   1.000  C
  C64      1.0000 0.68110  0.93460  0.48253  Biso   1.000  C
