data_image0
_cell_length_a       7.8348
_cell_length_b       11.352
_cell_length_c       24.248
_cell_angle_alpha    90
_cell_angle_beta     90
_cell_angle_gamma    96.8

_symmetry_space_group_name_H-M    "P 1"
_symmetry_int_tables_number       1

loop_
  _symmetry_equiv_pos_as_xyz
  'x, y, z'

loop_
  _atom_site_label
  _atom_site_occupancy
  _atom_site_fract_x
  _atom_site_fract_y
  _atom_site_fract_z
  _atom_site_thermal_displace_type
  _atom_site_B_iso_or_equiv
  _atom_site_type_symbol
  H1       1.0000 0.18677  0.81530  0.97087  Biso   1.000  H
  H2       1.0000 0.81323  0.18470  0.02913  Biso   1.000  H
  H3       1.0000 0.31323  0.18470  0.47087  Biso   1.000  H
  H4       1.0000 0.68677  0.81530  0.52913  Biso   1.000  H
  H5       1.0000 0.54654  0.85979  0.25391  Biso   1.000  H
  H6       1.0000 0.45346  0.14021  0.74609  Biso   1.000  H
  H7       1.0000 0.95346  0.14021  0.75391  Biso   1.000  H
  H8       1.0000 0.04654  0.85979  0.24609  Biso   1.000  H
  H9       1.0000 0.54627  0.40789  0.22098  Biso   1.000  H
  H10      1.0000 0.45373  0.59211  0.77902  Biso   1.000  H
  H11      1.0000 0.95373  0.59211  0.72098  Biso   1.000  H
  H12      1.0000 0.04627  0.40789  0.27902  Biso   1.000  H
  H13      1.0000 0.63663  0.06541  0.22701  Biso   1.000  H
  H14      1.0000 0.36337  0.93459  0.77299  Biso   1.000  H
  H15      1.0000 0.86337  0.93459  0.72701  Biso   1.000  H
  H16      1.0000 0.13663  0.06541  0.27299  Biso   1.000  H
  H17      1.0000 0.22455  0.63067  0.92442  Biso   1.000  H
  H18      1.0000 0.77545  0.36933  0.07558  Biso   1.000  H
  H19      1.0000 0.27545  0.36933  0.42442  Biso   1.000  H
  H20      1.0000 0.72455  0.63067  0.57558  Biso   1.000  H
  H21      1.0000 0.49645  0.54175  0.93448  Biso   1.000  H
  H22      1.0000 0.50355  0.45825  0.06552  Biso   1.000  H
  H23      1.0000 0.00355  0.45825  0.43448  Biso   1.000  H
  H24      1.0000 0.99645  0.54175  0.56552  Biso   1.000  H
  H25      1.0000 0.03988  0.19639  0.17765  Biso   1.000  H
  H26      1.0000 0.96012  0.80361  0.82235  Biso   1.000  H
  H27      1.0000 0.46012  0.80361  0.67765  Biso   1.000  H
  H28      1.0000 0.53988  0.19639  0.32235  Biso   1.000  H
  H29      1.0000 0.40885  0.91831  0.03041  Biso   1.000  H
  H30      1.0000 0.59115  0.08169  0.96959  Biso   1.000  H
  H31      1.0000 0.09115  0.08169  0.53041  Biso   1.000  H
  H32      1.0000 0.90885  0.91831  0.46959  Biso   1.000  H
  H33      1.0000 0.75802  0.24074  0.20881  Biso   1.000  H
  H34      1.0000 0.24198  0.75926  0.79119  Biso   1.000  H
  H35      1.0000 0.74198  0.75926  0.70881  Biso   1.000  H
  H36      1.0000 0.25802  0.24074  0.29119  Biso   1.000  H
  H37      1.0000 0.47772  0.16077  0.15518  Biso   1.000  H
  H38      1.0000 0.52228  0.83923  0.84482  Biso   1.000  H
  H39      1.0000 0.02228  0.83923  0.65518  Biso   1.000  H
  H40      1.0000 0.97772  0.16077  0.34482  Biso   1.000  H
  H41      1.0000 0.73804  0.76298  0.17195  Biso   1.000  H
  H42      1.0000 0.26196  0.23702  0.82805  Biso   1.000  H
  H43      1.0000 0.76196  0.23702  0.67195  Biso   1.000  H
  H44      1.0000 0.23804  0.76298  0.32805  Biso   1.000  H
  H45      1.0000 0.31099  0.61635  0.11368  Biso   1.000  H
  H46      1.0000 0.68901  0.38365  0.88632  Biso   1.000  H
  H47      1.0000 0.18901  0.38365  0.61368  Biso   1.000  H
  H48      1.0000 0.81099  0.61635  0.38632  Biso   1.000  H
  H49      1.0000 0.78381  0.55686  0.97448  Biso   1.000  H
  H50      1.0000 0.21619  0.44314  0.02552  Biso   1.000  H
  H51      1.0000 0.71619  0.44314  0.47448  Biso   1.000  H
  H52      1.0000 0.28381  0.55686  0.52552  Biso   1.000  H
  H53      1.0000 0.30857  0.74195  0.20746  Biso   1.000  H
  H54      1.0000 0.69143  0.25805  0.79254  Biso   1.000  H
  H55      1.0000 0.19143  0.25805  0.70746  Biso   1.000  H
  H56      1.0000 0.80857  0.74195  0.29254  Biso   1.000  H
  H57      1.0000 0.70052  0.93203  0.07156  Biso   1.000  H
  H58      1.0000 0.29948  0.06797  0.92844  Biso   1.000  H
  H59      1.0000 0.79948  0.06797  0.57156  Biso   1.000  H
  H60      1.0000 0.20052  0.93203  0.42844  Biso   1.000  H
  H61      1.0000 0.25655  0.34914  0.14049  Biso   1.000  H
  H62      1.0000 0.74345  0.65086  0.85951  Biso   1.000  H
  H63      1.0000 0.24345  0.65086  0.64049  Biso   1.000  H
  H64      1.0000 0.75655  0.34914  0.35951  Biso   1.000  H
  H65      1.0000 0.98894  0.03619  0.04583  Biso   1.000  H
  H66      1.0000 0.01106  0.96381  0.95417  Biso   1.000  H
  H67      1.0000 0.51106  0.96381  0.54583  Biso   1.000  H
  H68      1.0000 0.48894  0.03619  0.45417  Biso   1.000  H
  H69      1.0000 0.50780  0.61585  0.21087  Biso   1.000  H
  H70      1.0000 0.49220  0.38415  0.78913  Biso   1.000  H
  H71      1.0000 0.99220  0.38415  0.71087  Biso   1.000  H
  H72      1.0000 0.00780  0.61585  0.28913  Biso   1.000  H
  H73      1.0000 0.01621  0.66133  0.03110  Biso   1.000  H
  H74      1.0000 0.98379  0.33867  0.96890  Biso   1.000  H
  H75      1.0000 0.48379  0.33867  0.53110  Biso   1.000  H
  H76      1.0000 0.51621  0.66133  0.46890  Biso   1.000  H
  H77      1.0000 0.23575  0.14834  0.08885  Biso   1.000  H
  H78      1.0000 0.76425  0.85166  0.91115  Biso   1.000  H
  H79      1.0000 0.26425  0.85166  0.58885  Biso   1.000  H
  H80      1.0000 0.73575  0.14834  0.41115  Biso   1.000  H
  C1       1.0000 0.30790  0.77850  0.97670  Biso   1.000  C
  C2       1.0000 0.69210  0.22150  0.02330  Biso   1.000  C
  C3       1.0000 0.19210  0.22150  0.47670  Biso   1.000  C
  C4       1.0000 0.80790  0.77850  0.52330  Biso   1.000  C
  C5       1.0000 0.47810  0.89890  0.22080  Biso   1.000  C
  C6       1.0000 0.52190  0.10110  0.77920  Biso   1.000  C
  C7       1.0000 0.02190  0.10110  0.72080  Biso   1.000  C
  C8       1.0000 0.97810  0.89890  0.27920  Biso   1.000  C
  C9       1.0000 0.65030  0.46950  0.20390  Biso   1.000  C
  C10      1.0000 0.34970  0.53050  0.79610  Biso   1.000  C
  C11      1.0000 0.84970  0.53050  0.70390  Biso   1.000  C
  C12      1.0000 0.15030  0.46950  0.29610  Biso   1.000  C
  C13      1.0000 0.52760  0.01640  0.20580  Biso   1.000  C
  C14      1.0000 0.47240  0.98360  0.79420  Biso   1.000  C
  C15      1.0000 0.97240  0.98360  0.70580  Biso   1.000  C
  C16      1.0000 0.02760  0.01640  0.29420  Biso   1.000  C
  C17      1.0000 0.32990  0.67310  0.94950  Biso   1.000  C
  C18      1.0000 0.67010  0.32690  0.05050  Biso   1.000  C
  C19      1.0000 0.17010  0.32690  0.44950  Biso   1.000  C
  C20      1.0000 0.82990  0.67310  0.55050  Biso   1.000  C
  C21      1.0000 0.47520  0.62470  0.95450  Biso   1.000  C
  C22      1.0000 0.52480  0.37530  0.04550  Biso   1.000  C
  C23      1.0000 0.02480  0.37530  0.45450  Biso   1.000  C
  C24      1.0000 0.97520  0.62470  0.54550  Biso   1.000  C
  C25      1.0000 0.00850  0.28720  0.17440  Biso   1.000  C
  C26      1.0000 0.99150  0.71280  0.82560  Biso   1.000  C
  C27      1.0000 0.49150  0.71280  0.67440  Biso   1.000  C
  C28      1.0000 0.50850  0.28720  0.32560  Biso   1.000  C
  C29      1.0000 0.43080  0.83640  0.00960  Biso   1.000  C
  C30      1.0000 0.56920  0.16360  0.99040  Biso   1.000  C
  C31      1.0000 0.06920  0.16360  0.50960  Biso   1.000  C
  C32      1.0000 0.93080  0.83640  0.49040  Biso   1.000  C
  C33      1.0000 0.84890  0.31150  0.19180  Biso   1.000  C
  C34      1.0000 0.15110  0.68850  0.80820  Biso   1.000  C
  C35      1.0000 0.65110  0.68850  0.69180  Biso   1.000  C
  C36      1.0000 0.34890  0.31150  0.30820  Biso   1.000  C
  C37      1.0000 0.44120  0.06830  0.16700  Biso   1.000  C
  C38      1.0000 0.55880  0.93170  0.83300  Biso   1.000  C
  C39      1.0000 0.05880  0.93170  0.66700  Biso   1.000  C
  C40      1.0000 0.94120  0.06830  0.33300  Biso   1.000  C
  C41      1.0000 0.76160  0.67060  0.17570  Biso   1.000  C
  C42      1.0000 0.23840  0.32940  0.82430  Biso   1.000  C
  C43      1.0000 0.73840  0.32940  0.67570  Biso   1.000  C
  C44      1.0000 0.26160  0.67060  0.32430  Biso   1.000  C
  C45      1.0000 0.18180  0.60140  0.13070  Biso   1.000  C
  C46      1.0000 0.81820  0.39860  0.86930  Biso   1.000  C
  C47      1.0000 0.31820  0.39860  0.63070  Biso   1.000  C
  C48      1.0000 0.68180  0.60140  0.36930  Biso   1.000  C
  C49      1.0000 0.76380  0.63890  0.99550  Biso   1.000  C
  C50      1.0000 0.23620  0.36110  0.00450  Biso   1.000  C
  C51      1.0000 0.73620  0.36110  0.49550  Biso   1.000  C
  C52      1.0000 0.26380  0.63890  0.50450  Biso   1.000  C
  C53      1.0000 0.34670  0.83340  0.19510  Biso   1.000  C
  C54      1.0000 0.65330  0.16660  0.80490  Biso   1.000  C
  C55      1.0000 0.15330  0.16660  0.69510  Biso   1.000  C
  C56      1.0000 0.84670  0.83340  0.30490  Biso   1.000  C
  C57      1.0000 0.72290  0.85020  0.05060  Biso   1.000  C
  C58      1.0000 0.27710  0.14980  0.94940  Biso   1.000  C
  C59      1.0000 0.77710  0.14980  0.55060  Biso   1.000  C
  C60      1.0000 0.22290  0.85020  0.44940  Biso   1.000  C
  C61      1.0000 0.13170  0.37360  0.15310  Biso   1.000  C
  C62      1.0000 0.86830  0.62640  0.84690  Biso   1.000  C
  C63      1.0000 0.36830  0.62640  0.65310  Biso   1.000  C
  C64      1.0000 0.63170  0.37360  0.34690  Biso   1.000  C
  C65      1.0000 0.57980  0.79020  0.01570  Biso   1.000  C
  C66      1.0000 0.42020  0.20980  0.98430  Biso   1.000  C
  C67      1.0000 0.92020  0.20980  0.51570  Biso   1.000  C
  C68      1.0000 0.07980  0.79020  0.48430  Biso   1.000  C
  C69      1.0000 0.06370  0.99360  0.07620  Biso   1.000  C
  C70      1.0000 0.93630  0.00640  0.92380  Biso   1.000  C
  C71      1.0000 0.43630  0.00640  0.57620  Biso   1.000  C
  C72      1.0000 0.56370  0.99360  0.42380  Biso   1.000  C
  C73      1.0000 0.62820  0.58540  0.19800  Biso   1.000  C
  C74      1.0000 0.37180  0.41460  0.80200  Biso   1.000  C
  C75      1.0000 0.87180  0.41460  0.69800  Biso   1.000  C
  C76      1.0000 0.12820  0.58540  0.30200  Biso   1.000  C
  C77      1.0000 0.30030  0.00440  0.13950  Biso   1.000  C
  C78      1.0000 0.69970  0.99560  0.86050  Biso   1.000  C
  C79      1.0000 0.19970  0.99560  0.63950  Biso   1.000  C
  C80      1.0000 0.80030  0.00440  0.36050  Biso   1.000  C
  C81      1.0000 0.89440  0.69760  0.02740  Biso   1.000  C
  C82      1.0000 0.10560  0.30240  0.97260  Biso   1.000  C
  C83      1.0000 0.60560  0.30240  0.52740  Biso   1.000  C
  C84      1.0000 0.39440  0.69760  0.47260  Biso   1.000  C
  C85      1.0000 0.01800  0.87250  0.08770  Biso   1.000  C
  C86      1.0000 0.98200  0.12750  0.91230  Biso   1.000  C
  C87      1.0000 0.48200  0.12750  0.58770  Biso   1.000  C
  C88      1.0000 0.51800  0.87250  0.41230  Biso   1.000  C
  C89      1.0000 0.20010  0.05570  0.10020  Biso   1.000  C
  C90      1.0000 0.79990  0.94430  0.89980  Biso   1.000  C
  C91      1.0000 0.29990  0.94430  0.60020  Biso   1.000  C
  C92      1.0000 0.70010  0.05570  0.39980  Biso   1.000  C
  C93      1.0000 0.09340  0.48820  0.14840  Biso   1.000  C
  C94      1.0000 0.90660  0.51180  0.85160  Biso   1.000  C
  C95      1.0000 0.40660  0.51180  0.64840  Biso   1.000  C
  C96      1.0000 0.59340  0.48820  0.35160  Biso   1.000  C
  C97      1.0000 0.80610  0.42590  0.18810  Biso   1.000  C
  C98      1.0000 0.19390  0.57410  0.81190  Biso   1.000  C
  C99      1.0000 0.69390  0.57410  0.68810  Biso   1.000  C
  C100     1.0000 0.30610  0.42590  0.31190  Biso   1.000  C
  C101     1.0000 0.61320  0.68570  0.98990  Biso   1.000  C
  C102     1.0000 0.38680  0.31430  0.01010  Biso   1.000  C
  C103     1.0000 0.88680  0.31430  0.48990  Biso   1.000  C
  C104     1.0000 0.11320  0.68570  0.51010  Biso   1.000  C
  C105     1.0000 0.07350  0.68710  0.13720  Biso   1.000  C
  C106     1.0000 0.92650  0.31290  0.86280  Biso   1.000  C
  C107     1.0000 0.42650  0.31290  0.63720  Biso   1.000  C
  C108     1.0000 0.57350  0.68710  0.36280  Biso   1.000  C
  C109     1.0000 0.87130  0.80330  0.05490  Biso   1.000  C
  C110     1.0000 0.12870  0.19670  0.94510  Biso   1.000  C
  C111     1.0000 0.62870  0.19670  0.55490  Biso   1.000  C
  C112     1.0000 0.37130  0.80330  0.44510  Biso   1.000  C
  C113     1.0000 0.92960  0.51080  0.16690  Biso   1.000  C
  C114     1.0000 0.07040  0.48920  0.83310  Biso   1.000  C
  C115     1.0000 0.57040  0.48920  0.66690  Biso   1.000  C
  C116     1.0000 0.42960  0.51080  0.33310  Biso   1.000  C
  C117     1.0000 0.11270  0.81570  0.12400  Biso   1.000  C
  C118     1.0000 0.88730  0.18430  0.87600  Biso   1.000  C
  C119     1.0000 0.38730  0.18430  0.62400  Biso   1.000  C
  C120     1.0000 0.61270  0.81570  0.37600  Biso   1.000  C
  C121     1.0000 0.91030  0.63210  0.16060  Biso   1.000  C
  C122     1.0000 0.08970  0.36790  0.83940  Biso   1.000  C
  C123     1.0000 0.58970  0.36790  0.66060  Biso   1.000  C
  C124     1.0000 0.41030  0.63210  0.33940  Biso   1.000  C
  C125     1.0000 0.25380  0.88270  0.15270  Biso   1.000  C
  C126     1.0000 0.74620  0.11730  0.84730  Biso   1.000  C
  C127     1.0000 0.24620  0.11730  0.65270  Biso   1.000  C
  C128     1.0000 0.75380  0.88270  0.34730  Biso   1.000  C
