data_image0
_cell_length_a       7.9282
_cell_length_b       12.2985
_cell_length_c       13.998
_cell_angle_alpha    90.123
_cell_angle_beta     90
_cell_angle_gamma    90

_symmetry_space_group_name_H-M    "P 1"
_symmetry_int_tables_number       1

loop_
  _symmetry_equiv_pos_as_xyz
  'x, y, z'

loop_
  _atom_site_label
  _atom_site_occupancy
  _atom_site_fract_x
  _atom_site_fract_y
  _atom_site_fract_z
  _atom_site_thermal_displace_type
  _atom_site_B_iso_or_equiv
  _atom_site_type_symbol
  H1       1.0000 0.94096  0.82208  0.23075  Biso   1.000  H
  H2       1.0000 0.05904  0.17792  0.76925  Biso   1.000  H
  H3       1.0000 0.44096  0.17792  0.26925  Biso   1.000  H
  H4       1.0000 0.55904  0.82208  0.73075  Biso   1.000  H
  H5       1.0000 0.02520  0.78976  0.06548  Biso   1.000  H
  H6       1.0000 0.97480  0.21024  0.93452  Biso   1.000  H
  H7       1.0000 0.52520  0.21024  0.43452  Biso   1.000  H
  H8       1.0000 0.47480  0.78976  0.56548  Biso   1.000  H
  H9       1.0000 0.09517  0.60306  0.01078  Biso   1.000  H
  H10      1.0000 0.90483  0.39694  0.98922  Biso   1.000  H
  H11      1.0000 0.59517  0.39694  0.48922  Biso   1.000  H
  H12      1.0000 0.40483  0.60306  0.51078  Biso   1.000  H
  H13      1.0000 0.06403  0.44935  0.12060  Biso   1.000  H
  H14      1.0000 0.93597  0.55065  0.87940  Biso   1.000  H
  H15      1.0000 0.56403  0.55065  0.37940  Biso   1.000  H
  H16      1.0000 0.43597  0.44935  0.62060  Biso   1.000  H
  H17      1.0000 0.80890  0.38652  0.13963  Biso   1.000  H
  H18      1.0000 0.19110  0.61348  0.86037  Biso   1.000  H
  H19      1.0000 0.30890  0.61348  0.36037  Biso   1.000  H
  H20      1.0000 0.69110  0.38652  0.63963  Biso   1.000  H
  H21      1.0000 0.73062  0.20044  0.09605  Biso   1.000  H
  H22      1.0000 0.26938  0.79956  0.90395  Biso   1.000  H
  H23      1.0000 0.23062  0.79956  0.40395  Biso   1.000  H
  H24      1.0000 0.76938  0.20044  0.59605  Biso   1.000  H
  H25      1.0000 0.77828  0.04992  0.21253  Biso   1.000  H
  H26      1.0000 0.22172  0.95008  0.78747  Biso   1.000  H
  H27      1.0000 0.27828  0.95008  0.28747  Biso   1.000  H
  H28      1.0000 0.72172  0.04992  0.71253  Biso   1.000  H
  H29      1.0000 0.90872  0.08740  0.36647  Biso   1.000  H
  H30      1.0000 0.09128  0.91260  0.63353  Biso   1.000  H
  H31      1.0000 0.40872  0.91260  0.13353  Biso   1.000  H
  H32      1.0000 0.59128  0.08740  0.86647  Biso   1.000  H
  H33      1.0000 0.16537  0.08965  0.37626  Biso   1.000  H
  H34      1.0000 0.83463  0.91035  0.62374  Biso   1.000  H
  H35      1.0000 0.66537  0.91035  0.12374  Biso   1.000  H
  H36      1.0000 0.33463  0.08965  0.87626  Biso   1.000  H
  H37      1.0000 0.33470  0.96565  0.47266  Biso   1.000  H
  H38      1.0000 0.66530  0.03435  0.52734  Biso   1.000  H
  H39      1.0000 0.83470  0.03435  0.02734  Biso   1.000  H
  H40      1.0000 0.16530  0.96565  0.97266  Biso   1.000  H
  H41      1.0000 0.69942  0.81598  0.29033  Biso   1.000  H
  H42      1.0000 0.30058  0.18402  0.70967  Biso   1.000  H
  H43      1.0000 0.19942  0.18402  0.20967  Biso   1.000  H
  H44      1.0000 0.80058  0.81598  0.79033  Biso   1.000  H
  H45      1.0000 0.59211  0.98529  0.35995  Biso   1.000  H
  H46      1.0000 0.40789  0.01471  0.64005  Biso   1.000  H
  H47      1.0000 0.09211  0.01471  0.14005  Biso   1.000  H
  H48      1.0000 0.90789  0.98529  0.85995  Biso   1.000  H
  C1       1.0000 0.02790  0.28286  0.43168  Biso   1.000  C
  C2       1.0000 0.97210  0.71714  0.56832  Biso   1.000  C
  C3       1.0000 0.52790  0.71714  0.06832  Biso   1.000  C
  C4       1.0000 0.47210  0.28286  0.93168  Biso   1.000  C
  C5       1.0000 0.01650  0.39002  0.46523  Biso   1.000  C
  C6       1.0000 0.98350  0.60998  0.53477  Biso   1.000  C
  C7       1.0000 0.51650  0.60998  0.03477  Biso   1.000  C
  C8       1.0000 0.48350  0.39002  0.96523  Biso   1.000  C
  C9       1.0000 0.97540  0.47678  0.40030  Biso   1.000  C
  C10      1.0000 0.02460  0.52322  0.59970  Biso   1.000  C
  C11      1.0000 0.47540  0.52322  0.09970  Biso   1.000  C
  C12      1.0000 0.52460  0.47678  0.90030  Biso   1.000  C
  C13      1.0000 0.95620  0.58653  0.43510  Biso   1.000  C
  C14      1.0000 0.04380  0.41347  0.56490  Biso   1.000  C
  C15      1.0000 0.45620  0.41347  0.06490  Biso   1.000  C
  C16      1.0000 0.54380  0.58653  0.93510  Biso   1.000  C
  C17      1.0000 0.90970  0.66954  0.37231  Biso   1.000  C
  C18      1.0000 0.09030  0.33046  0.62769  Biso   1.000  C
  C19      1.0000 0.40970  0.33046  0.12769  Biso   1.000  C
  C20      1.0000 0.59030  0.66954  0.87231  Biso   1.000  C
  C21      1.0000 0.93440  0.65194  0.27076  Biso   1.000  C
  C22      1.0000 0.06560  0.34806  0.72924  Biso   1.000  C
  C23      1.0000 0.43440  0.34806  0.22924  Biso   1.000  C
  C24      1.0000 0.56560  0.65194  0.77076  Biso   1.000  C
  C25      1.0000 0.95510  0.73896  0.20571  Biso   1.000  C
  C26      1.0000 0.04490  0.26104  0.79429  Biso   1.000  C
  C27      1.0000 0.45510  0.26104  0.29429  Biso   1.000  C
  C28      1.0000 0.54490  0.73896  0.70571  Biso   1.000  C
  C29      1.0000 0.00640  0.72098  0.11319  Biso   1.000  C
  C30      1.0000 0.99360  0.27902  0.88681  Biso   1.000  C
  C31      1.0000 0.50640  0.27902  0.38681  Biso   1.000  C
  C32      1.0000 0.49360  0.72098  0.61319  Biso   1.000  C
  C33      1.0000 0.04350  0.61624  0.08181  Biso   1.000  C
  C34      1.0000 0.95650  0.38376  0.91819  Biso   1.000  C
  C35      1.0000 0.54350  0.38376  0.41819  Biso   1.000  C
  C36      1.0000 0.45650  0.61624  0.58181  Biso   1.000  C
  C37      1.0000 0.02400  0.53007  0.14292  Biso   1.000  C
  C38      1.0000 0.97600  0.46993  0.85708  Biso   1.000  C
  C39      1.0000 0.52400  0.46993  0.35708  Biso   1.000  C
  C40      1.0000 0.47600  0.53007  0.64292  Biso   1.000  C
  C41      1.0000 0.96520  0.54482  0.23732  Biso   1.000  C
  C42      1.0000 0.03480  0.45518  0.76268  Biso   1.000  C
  C43      1.0000 0.46520  0.45518  0.26268  Biso   1.000  C
  C44      1.0000 0.53480  0.54482  0.73732  Biso   1.000  C
  C45      1.0000 0.95660  0.45482  0.30309  Biso   1.000  C
  C46      1.0000 0.04340  0.54518  0.69691  Biso   1.000  C
  C47      1.0000 0.45660  0.54518  0.19691  Biso   1.000  C
  C48      1.0000 0.54340  0.45482  0.80309  Biso   1.000  C
  C49      1.0000 0.92460  0.34381  0.27389  Biso   1.000  C
  C50      1.0000 0.07540  0.65619  0.72611  Biso   1.000  C
  C51      1.0000 0.42460  0.65619  0.22611  Biso   1.000  C
  C52      1.0000 0.57540  0.34381  0.77389  Biso   1.000  C
  C53      1.0000 0.84350  0.31984  0.18649  Biso   1.000  C
  C54      1.0000 0.15650  0.68016  0.81351  Biso   1.000  C
  C55      1.0000 0.34350  0.68016  0.31351  Biso   1.000  C
  C56      1.0000 0.65650  0.31984  0.68649  Biso   1.000  C
  C57      1.0000 0.79640  0.21579  0.16307  Biso   1.000  C
  C58      1.0000 0.20360  0.78421  0.83693  Biso   1.000  C
  C59      1.0000 0.29640  0.78421  0.33693  Biso   1.000  C
  C60      1.0000 0.70360  0.21579  0.66307  Biso   1.000  C
  C61      1.0000 0.82350  0.13174  0.22807  Biso   1.000  C
  C62      1.0000 0.17650  0.86826  0.77193  Biso   1.000  C
  C63      1.0000 0.32350  0.86826  0.27193  Biso   1.000  C
  C64      1.0000 0.67650  0.13174  0.72807  Biso   1.000  C
  C65      1.0000 0.89930  0.15239  0.31435  Biso   1.000  C
  C66      1.0000 0.10070  0.84761  0.68565  Biso   1.000  C
  C67      1.0000 0.39930  0.84761  0.18565  Biso   1.000  C
  C68      1.0000 0.60070  0.15239  0.81435  Biso   1.000  C
  C69      1.0000 0.95550  0.25798  0.33905  Biso   1.000  C
  C70      1.0000 0.04450  0.74202  0.66095  Biso   1.000  C
  C71      1.0000 0.45550  0.74202  0.16095  Biso   1.000  C
  C72      1.0000 0.54450  0.25798  0.83905  Biso   1.000  C
  C73      1.0000 0.11540  0.20414  0.48996  Biso   1.000  C
  C74      1.0000 0.88460  0.79586  0.51004  Biso   1.000  C
  C75      1.0000 0.61540  0.79586  0.01004  Biso   1.000  C
  C76      1.0000 0.38460  0.20414  0.98996  Biso   1.000  C
  C77      1.0000 0.18450  0.10743  0.45152  Biso   1.000  C
  C78      1.0000 0.81550  0.89257  0.54848  Biso   1.000  C
  C79      1.0000 0.68450  0.89257  0.04848  Biso   1.000  C
  C80      1.0000 0.31550  0.10743  0.95152  Biso   1.000  C
  C81      1.0000 0.28250  0.03894  0.50476  Biso   1.000  C
  C82      1.0000 0.71750  0.96106  0.49524  Biso   1.000  C
  C83      1.0000 0.78250  0.96106  0.99524  Biso   1.000  C
  C84      1.0000 0.21750  0.03894  0.00476  Biso   1.000  C
  C85      1.0000 0.84760  0.77047  0.41275  Biso   1.000  C
  C86      1.0000 0.15240  0.22953  0.58725  Biso   1.000  C
  C87      1.0000 0.34760  0.22953  0.08725  Biso   1.000  C
  C88      1.0000 0.65240  0.77047  0.91275  Biso   1.000  C
  C89      1.0000 0.73990  0.84003  0.36146  Biso   1.000  C
  C90      1.0000 0.26010  0.15997  0.63854  Biso   1.000  C
  C91      1.0000 0.23990  0.15997  0.13854  Biso   1.000  C
  C92      1.0000 0.76010  0.84003  0.86146  Biso   1.000  C
  C93      1.0000 0.67690  0.93384  0.40102  Biso   1.000  C
  C94      1.0000 0.32310  0.06616  0.59898  Biso   1.000  C
  C95      1.0000 0.17690  0.06616  0.09898  Biso   1.000  C
  C96      1.0000 0.82310  0.93384  0.90102  Biso   1.000  C
