data_image0
_cell_length_a       8.6282
_cell_length_b       8.6282
_cell_length_c       12.257
_cell_angle_alpha    90.3343
_cell_angle_beta     90.3343
_cell_angle_gamma    103.503

_symmetry_space_group_name_H-M    "P 1"
_symmetry_int_tables_number       1

loop_
  _symmetry_equiv_pos_as_xyz
  'x, y, z'

loop_
  _atom_site_label
  _atom_site_occupancy
  _atom_site_fract_x
  _atom_site_fract_y
  _atom_site_fract_z
  _atom_site_thermal_displace_type
  _atom_site_B_iso_or_equiv
  _atom_site_type_symbol
  C1       1.0000 0.68640  0.28060  0.90330  Biso   1.000  C
  C2       1.0000 0.31360  0.71940  0.09670  Biso   1.000  C
  C3       1.0000 0.71940  0.31360  0.59670  Biso   1.000  C
  C4       1.0000 0.28060  0.68640  0.40330  Biso   1.000  C
  C5       1.0000 0.34560  0.19920  0.86610  Biso   1.000  C
  C6       1.0000 0.65440  0.80080  0.13390  Biso   1.000  C
  C7       1.0000 0.80080  0.65440  0.63390  Biso   1.000  C
  C8       1.0000 0.19920  0.34560  0.36610  Biso   1.000  C
  C9       1.0000 0.84590  0.32190  0.91980  Biso   1.000  C
  C10      1.0000 0.15410  0.67810  0.08020  Biso   1.000  C
  C11      1.0000 0.67810  0.15410  0.58020  Biso   1.000  C
  C12      1.0000 0.32190  0.84590  0.41980  Biso   1.000  C
  C13      1.0000 0.27840  0.14760  0.76460  Biso   1.000  C
  C14      1.0000 0.72160  0.85240  0.23540  Biso   1.000  C
  C15      1.0000 0.85240  0.72160  0.73540  Biso   1.000  C
  C16      1.0000 0.14760  0.27840  0.26460  Biso   1.000  C
  C17      1.0000 0.92070  0.22890  0.98660  Biso   1.000  C
  C18      1.0000 0.07930  0.77110  0.01340  Biso   1.000  C
  C19      1.0000 0.77110  0.07930  0.51340  Biso   1.000  C
  C20      1.0000 0.22890  0.92070  0.48660  Biso   1.000  C
  C21      1.0000 0.20790  0.24490  0.70240  Biso   1.000  C
  C22      1.0000 0.79210  0.75510  0.29760  Biso   1.000  C
  C23      1.0000 0.75510  0.79210  0.79760  Biso   1.000  C
  C24      1.0000 0.24490  0.20790  0.20240  Biso   1.000  C
  C25      1.0000 0.83250  0.09350  0.03460  Biso   1.000  C
  C26      1.0000 0.16750  0.90650  0.96540  Biso   1.000  C
  C27      1.0000 0.90650  0.16750  0.46540  Biso   1.000  C
  C28      1.0000 0.09350  0.83250  0.53460  Biso   1.000  C
  C29      1.0000 0.20350  0.39450  0.73860  Biso   1.000  C
  C30      1.0000 0.79650  0.60550  0.26140  Biso   1.000  C
  C31      1.0000 0.60550  0.79650  0.76140  Biso   1.000  C
  C32      1.0000 0.39450  0.20350  0.23860  Biso   1.000  C
  C33      1.0000 0.26970  0.44790  0.83820  Biso   1.000  C
  C34      1.0000 0.73030  0.55210  0.16180  Biso   1.000  C
  C35      1.0000 0.55210  0.73030  0.66180  Biso   1.000  C
  C36      1.0000 0.44790  0.26970  0.33820  Biso   1.000  C
  C37      1.0000 0.33910  0.35010  0.90200  Biso   1.000  C
  C38      1.0000 0.66090  0.64990  0.09800  Biso   1.000  C
  C39      1.0000 0.64990  0.66090  0.59800  Biso   1.000  C
  C40      1.0000 0.35010  0.33910  0.40200  Biso   1.000  C
  C41      1.0000 0.42340  0.09600  0.93380  Biso   1.000  C
  C42      1.0000 0.57660  0.90400  0.06620  Biso   1.000  C
  C43      1.0000 0.90400  0.57660  0.56620  Biso   1.000  C
  C44      1.0000 0.09600  0.42340  0.43380  Biso   1.000  C
  C45      1.0000 0.58920  0.14140  0.95250  Biso   1.000  C
  C46      1.0000 0.41080  0.85860  0.04750  Biso   1.000  C
  C47      1.0000 0.85860  0.41080  0.54750  Biso   1.000  C
  C48      1.0000 0.14140  0.58920  0.45250  Biso   1.000  C
  C49      1.0000 0.66620  0.04540  0.01980  Biso   1.000  C
  C50      1.0000 0.33380  0.95460  0.98020  Biso   1.000  C
  C51      1.0000 0.95460  0.33380  0.48020  Biso   1.000  C
  C52      1.0000 0.04540  0.66620  0.51980  Biso   1.000  C
  H1       1.0000 0.62978  0.35276  0.85084  Biso   1.000  H
  H2       1.0000 0.37022  0.64724  0.14916  Biso   1.000  H
  H3       1.0000 0.64724  0.37022  0.64916  Biso   1.000  H
  H4       1.0000 0.35276  0.62978  0.35084  Biso   1.000  H
  H5       1.0000 0.91737  0.42755  0.88072  Biso   1.000  H
  H6       1.0000 0.08263  0.57245  0.11928  Biso   1.000  H
  H7       1.0000 0.57245  0.08263  0.61928  Biso   1.000  H
  H8       1.0000 0.42755  0.91737  0.38072  Biso   1.000  H
  H9       1.0000 0.28242  0.02944  0.73437  Biso   1.000  H
  H10      1.0000 0.71758  0.97056  0.26563  Biso   1.000  H
  H11      1.0000 0.97056  0.71758  0.76563  Biso   1.000  H
  H12      1.0000 0.02944  0.28242  0.23437  Biso   1.000  H
  H13      1.0000 0.04934  0.26325  0.99828  Biso   1.000  H
  H14      1.0000 0.95066  0.73675  0.00172  Biso   1.000  H
  H15      1.0000 0.73675  0.95066  0.50172  Biso   1.000  H
  H16      1.0000 0.26325  0.04934  0.49828  Biso   1.000  H
  H17      1.0000 0.15415  0.20222  0.62394  Biso   1.000  H
  H18      1.0000 0.84585  0.79778  0.37606  Biso   1.000  H
  H19      1.0000 0.79778  0.84585  0.87606  Biso   1.000  H
  H20      1.0000 0.20222  0.15415  0.12394  Biso   1.000  H
  H21      1.0000 0.89199  0.02073  0.08458  Biso   1.000  H
  H22      1.0000 0.10801  0.97927  0.91542  Biso   1.000  H
  H23      1.0000 0.97927  0.10801  0.41542  Biso   1.000  H
  H24      1.0000 0.02073  0.89199  0.58458  Biso   1.000  H
  H25      1.0000 0.14791  0.47072  0.68863  Biso   1.000  H
  H26      1.0000 0.85209  0.52928  0.31137  Biso   1.000  H
  H27      1.0000 0.52928  0.85209  0.81137  Biso   1.000  H
  H28      1.0000 0.47072  0.14791  0.18863  Biso   1.000  H
  H29      1.0000 0.26685  0.56637  0.86818  Biso   1.000  H
  H30      1.0000 0.73315  0.43363  0.13182  Biso   1.000  H
  H31      1.0000 0.43363  0.73315  0.63182  Biso   1.000  H
  H32      1.0000 0.56637  0.26685  0.36818  Biso   1.000  H
  H33      1.0000 0.38869  0.39217  0.98180  Biso   1.000  H
  H34      1.0000 0.61131  0.60783  0.01820  Biso   1.000  H
  H35      1.0000 0.60783  0.61131  0.51820  Biso   1.000  H
  H36      1.0000 0.39217  0.38869  0.48180  Biso   1.000  H
