data_image0
_cell_length_a       7.693
_cell_length_b       12.191
_cell_length_c       17.731
_cell_angle_alpha    97.15
_cell_angle_beta     90
_cell_angle_gamma    90

_symmetry_space_group_name_H-M    "P 1"
_symmetry_int_tables_number       1

loop_
  _symmetry_equiv_pos_as_xyz
  'x, y, z'

loop_
  _atom_site_label
  _atom_site_occupancy
  _atom_site_fract_x
  _atom_site_fract_y
  _atom_site_fract_z
  _atom_site_thermal_displace_type
  _atom_site_B_iso_or_equiv
  _atom_site_type_symbol
  H1       1.0000 0.19550  0.19894  0.11532  Biso   1.000  H
  H2       1.0000 0.80450  0.80106  0.88468  Biso   1.000  H
  H3       1.0000 0.69550  0.30106  0.38468  Biso   1.000  H
  H4       1.0000 0.30450  0.69894  0.61532  Biso   1.000  H
  H5       1.0000 0.12237  0.24296  0.98884  Biso   1.000  H
  H6       1.0000 0.87763  0.75704  0.01116  Biso   1.000  H
  H7       1.0000 0.62237  0.25704  0.51116  Biso   1.000  H
  H8       1.0000 0.37763  0.74296  0.48884  Biso   1.000  H
  H9       1.0000 0.19957  0.42707  0.95230  Biso   1.000  H
  H10      1.0000 0.80043  0.57293  0.04770  Biso   1.000  H
  H11      1.0000 0.69957  0.07293  0.54770  Biso   1.000  H
  H12      1.0000 0.30043  0.92707  0.45230  Biso   1.000  H
  H13      1.0000 0.33633  0.56743  0.04477  Biso   1.000  H
  H14      1.0000 0.66367  0.43257  0.95523  Biso   1.000  H
  H15      1.0000 0.83633  0.93257  0.45523  Biso   1.000  H
  H16      1.0000 0.16367  0.06743  0.54477  Biso   1.000  H
  H17      1.0000 0.50429  0.65995  0.11201  Biso   1.000  H
  H18      1.0000 0.49571  0.34005  0.88799  Biso   1.000  H
  H19      1.0000 0.00429  0.84005  0.38799  Biso   1.000  H
  H20      1.0000 0.99571  0.15995  0.61201  Biso   1.000  H
  H21      1.0000 0.63917  0.79400  0.20980  Biso   1.000  H
  H22      1.0000 0.36083  0.20600  0.79020  Biso   1.000  H
  H23      1.0000 0.13917  0.70600  0.29020  Biso   1.000  H
  H24      1.0000 0.86083  0.29400  0.70980  Biso   1.000  H
  H25      1.0000 0.65993  0.75477  0.34260  Biso   1.000  H
  H26      1.0000 0.34007  0.24523  0.65740  Biso   1.000  H
  H27      1.0000 0.15993  0.74523  0.15740  Biso   1.000  H
  H28      1.0000 0.84007  0.25477  0.84260  Biso   1.000  H
  H29      1.0000 0.54250  0.58282  0.37844  Biso   1.000  H
  H30      1.0000 0.45750  0.41718  0.62156  Biso   1.000  H
  H31      1.0000 0.04250  0.91718  0.12156  Biso   1.000  H
  H32      1.0000 0.95750  0.08282  0.87844  Biso   1.000  H
  H33      1.0000 0.28785  0.57541  0.40714  Biso   1.000  H
  H34      1.0000 0.71215  0.42459  0.59286  Biso   1.000  H
  H35      1.0000 0.78785  0.92459  0.09286  Biso   1.000  H
  H36      1.0000 0.21215  0.07541  0.90714  Biso   1.000  H
  H37      1.0000 0.18259  0.54384  0.53192  Biso   1.000  H
  H38      1.0000 0.81741  0.45616  0.46808  Biso   1.000  H
  H39      1.0000 0.68259  0.95616  0.96808  Biso   1.000  H
  H40      1.0000 0.31741  0.04384  0.03192  Biso   1.000  H
  H41      1.0000 0.13713  0.35347  0.56280  Biso   1.000  H
  H42      1.0000 0.86287  0.64653  0.43720  Biso   1.000  H
  H43      1.0000 0.63713  0.14653  0.93720  Biso   1.000  H
  H44      1.0000 0.36287  0.85347  0.06280  Biso   1.000  H
  H45      1.0000 0.20018  0.19557  0.46705  Biso   1.000  H
  H46      1.0000 0.79982  0.80443  0.53295  Biso   1.000  H
  H47      1.0000 0.70018  0.30443  0.03295  Biso   1.000  H
  H48      1.0000 0.29982  0.69557  0.96705  Biso   1.000  H
  H49      1.0000 0.33964  0.07982  0.40446  Biso   1.000  H
  H50      1.0000 0.66036  0.92018  0.59554  Biso   1.000  H
  H51      1.0000 0.83964  0.42018  0.09554  Biso   1.000  H
  H52      1.0000 0.16036  0.57982  0.90446  Biso   1.000  H
  H53      1.0000 0.41275  0.92318  0.30970  Biso   1.000  H
  H54      1.0000 0.58725  0.07682  0.69030  Biso   1.000  H
  H55      1.0000 0.91275  0.57682  0.19030  Biso   1.000  H
  H56      1.0000 0.08725  0.42318  0.80970  Biso   1.000  H
  H57      1.0000 0.47256  0.95708  0.17644  Biso   1.000  H
  H58      1.0000 0.52744  0.04292  0.82356  Biso   1.000  H
  H59      1.0000 0.97256  0.54292  0.32356  Biso   1.000  H
  H60      1.0000 0.02744  0.45708  0.67644  Biso   1.000  H
  H61      1.0000 0.44426  0.14249  0.13979  Biso   1.000  H
  H62      1.0000 0.55574  0.85751  0.86021  Biso   1.000  H
  H63      1.0000 0.94426  0.35751  0.36021  Biso   1.000  H
  H64      1.0000 0.05574  0.64249  0.63979  Biso   1.000  H
  C1       1.0000 0.23690  0.27760  0.09850  Biso   1.000  C
  C2       1.0000 0.76310  0.72240  0.90150  Biso   1.000  C
  C3       1.0000 0.73690  0.22240  0.40150  Biso   1.000  C
  C4       1.0000 0.26310  0.77760  0.59850  Biso   1.000  C
  C5       1.0000 0.19330  0.30260  0.02820  Biso   1.000  C
  C6       1.0000 0.80670  0.69740  0.97180  Biso   1.000  C
  C7       1.0000 0.69330  0.19740  0.47180  Biso   1.000  C
  C8       1.0000 0.30670  0.80260  0.52820  Biso   1.000  C
  C9       1.0000 0.23390  0.40660  0.00850  Biso   1.000  C
  C10      1.0000 0.76610  0.59340  0.99150  Biso   1.000  C
  C11      1.0000 0.73390  0.09340  0.49150  Biso   1.000  C
  C12      1.0000 0.26610  0.90660  0.50850  Biso   1.000  C
  C13      1.0000 0.31130  0.48540  0.06040  Biso   1.000  C
  C14      1.0000 0.68870  0.51460  0.93960  Biso   1.000  C
  C15      1.0000 0.81130  0.01460  0.43960  Biso   1.000  C
  C16      1.0000 0.18870  0.98540  0.56040  Biso   1.000  C
  C17      1.0000 0.59190  0.69740  0.30060  Biso   1.000  C
  C18      1.0000 0.40810  0.30260  0.69940  Biso   1.000  C
  C19      1.0000 0.09190  0.80260  0.19940  Biso   1.000  C
  C20      1.0000 0.90810  0.19740  0.80060  Biso   1.000  C
  C21      1.0000 0.52280  0.60200  0.32080  Biso   1.000  C
  C22      1.0000 0.47720  0.39800  0.67920  Biso   1.000  C
  C23      1.0000 0.02280  0.89800  0.17920  Biso   1.000  C
  C24      1.0000 0.97720  0.10200  0.82080  Biso   1.000  C
  C25      1.0000 0.28030  0.49130  0.42110  Biso   1.000  C
  C26      1.0000 0.71970  0.50870  0.57890  Biso   1.000  C
  C27      1.0000 0.78030  0.00870  0.07890  Biso   1.000  C
  C28      1.0000 0.21970  0.99130  0.92110  Biso   1.000  C
  C29      1.0000 0.21850  0.47340  0.49100  Biso   1.000  C
  C30      1.0000 0.78150  0.52660  0.50900  Biso   1.000  C
  C31      1.0000 0.71850  0.02660  0.00900  Biso   1.000  C
  C32      1.0000 0.28150  0.97340  0.99100  Biso   1.000  C
  C33      1.0000 0.19180  0.36710  0.50800  Biso   1.000  C
  C34      1.0000 0.80820  0.63290  0.49200  Biso   1.000  C
  C35      1.0000 0.69180  0.13290  0.99200  Biso   1.000  C
  C36      1.0000 0.30820  0.86710  0.00800  Biso   1.000  C
  C37      1.0000 0.22970  0.27890  0.45490  Biso   1.000  C
  C38      1.0000 0.77030  0.72110  0.54510  Biso   1.000  C
  C39      1.0000 0.72970  0.22110  0.04510  Biso   1.000  C
  C40      1.0000 0.27030  0.77890  0.95490  Biso   1.000  C
  C41      1.0000 0.35380  0.09300  0.34520  Biso   1.000  C
  C42      1.0000 0.64620  0.90700  0.65480  Biso   1.000  C
  C43      1.0000 0.85380  0.40700  0.15480  Biso   1.000  C
  C44      1.0000 0.14620  0.59300  0.84520  Biso   1.000  C
  C45      1.0000 0.39770  0.00560  0.29300  Biso   1.000  C
  C46      1.0000 0.60230  0.99440  0.70700  Biso   1.000  C
  C47      1.0000 0.89770  0.49440  0.20700  Biso   1.000  C
  C48      1.0000 0.10230  0.50560  0.79300  Biso   1.000  C
  C49      1.0000 0.42930  0.02440  0.21840  Biso   1.000  C
  C50      1.0000 0.57070  0.97560  0.78160  Biso   1.000  C
  C51      1.0000 0.92930  0.47560  0.28160  Biso   1.000  C
  C52      1.0000 0.07070  0.52440  0.71840  Biso   1.000  C
  C53      1.0000 0.41000  0.12880  0.19730  Biso   1.000  C
  C54      1.0000 0.59000  0.87120  0.80270  Biso   1.000  C
  C55      1.0000 0.91000  0.37120  0.30270  Biso   1.000  C
  C56      1.0000 0.09000  0.62880  0.69730  Biso   1.000  C
  C57      1.0000 0.32250  0.35460  0.15370  Biso   1.000  C
  C58      1.0000 0.67750  0.64540  0.84630  Biso   1.000  C
  C59      1.0000 0.82250  0.14540  0.34630  Biso   1.000  C
  C60      1.0000 0.17750  0.85460  0.65370  Biso   1.000  C
  C61      1.0000 0.35570  0.46100  0.13400  Biso   1.000  C
  C62      1.0000 0.64430  0.53900  0.86600  Biso   1.000  C
  C63      1.0000 0.85570  0.03900  0.36600  Biso   1.000  C
  C64      1.0000 0.14430  0.96100  0.63400  Biso   1.000  C
  C65      1.0000 0.43230  0.54570  0.19100  Biso   1.000  C
  C66      1.0000 0.56770  0.45430  0.80900  Biso   1.000  C
  C67      1.0000 0.93230  0.95430  0.30900  Biso   1.000  C
  C68      1.0000 0.06770  0.04570  0.69100  Biso   1.000  C
  C69      1.0000 0.43670  0.52340  0.26770  Biso   1.000  C
  C70      1.0000 0.56330  0.47660  0.73230  Biso   1.000  C
  C71      1.0000 0.93670  0.97660  0.23230  Biso   1.000  C
  C72      1.0000 0.06330  0.02340  0.76770  Biso   1.000  C
  C73      1.0000 0.32610  0.40200  0.36580  Biso   1.000  C
  C74      1.0000 0.67390  0.59800  0.63420  Biso   1.000  C
  C75      1.0000 0.82610  0.09800  0.13420  Biso   1.000  C
  C76      1.0000 0.17390  0.90200  0.86580  Biso   1.000  C
  C77      1.0000 0.29740  0.29370  0.38290  Biso   1.000  C
  C78      1.0000 0.70260  0.70630  0.61710  Biso   1.000  C
  C79      1.0000 0.79740  0.20630  0.11710  Biso   1.000  C
  C80      1.0000 0.20260  0.79370  0.88290  Biso   1.000  C
  C81      1.0000 0.33420  0.20040  0.32620  Biso   1.000  C
  C82      1.0000 0.66580  0.79960  0.67380  Biso   1.000  C
  C83      1.0000 0.83420  0.29960  0.17380  Biso   1.000  C
  C84      1.0000 0.16580  0.70040  0.82620  Biso   1.000  C
  C85      1.0000 0.35940  0.21910  0.24980  Biso   1.000  C
  C86      1.0000 0.64060  0.78090  0.75020  Biso   1.000  C
  C87      1.0000 0.85940  0.28090  0.25020  Biso   1.000  C
  C88      1.0000 0.14060  0.71910  0.74980  Biso   1.000  C
  C89      1.0000 0.35340  0.33130  0.23040  Biso   1.000  C
  C90      1.0000 0.64660  0.66870  0.76960  Biso   1.000  C
  C91      1.0000 0.85340  0.16870  0.26960  Biso   1.000  C
  C92      1.0000 0.14660  0.83130  0.73040  Biso   1.000  C
  C93      1.0000 0.37310  0.41900  0.28790  Biso   1.000  C
  C94      1.0000 0.62690  0.58100  0.71210  Biso   1.000  C
  C95      1.0000 0.87310  0.08100  0.21210  Biso   1.000  C
  C96      1.0000 0.12690  0.91900  0.78790  Biso   1.000  C
  C97      1.0000 0.50350  0.64380  0.17100  Biso   1.000  C
  C98      1.0000 0.49650  0.35620  0.82900  Biso   1.000  C
  C99      1.0000 0.00350  0.85620  0.32900  Biso   1.000  C
  C100     1.0000 0.99650  0.14380  0.67100  Biso   1.000  C
  C101     1.0000 0.58070  0.71890  0.22610  Biso   1.000  C
  C102     1.0000 0.41930  0.28110  0.77390  Biso   1.000  C
  C103     1.0000 0.08070  0.78110  0.27390  Biso   1.000  C
  C104     1.0000 0.91930  0.21890  0.72610  Biso   1.000  C
