data_image0
_cell_length_a       6.462
_cell_length_b       20.8933
_cell_length_c       21.078
_cell_angle_alpha    98.5116
_cell_angle_beta     90
_cell_angle_gamma    98.8961

_symmetry_space_group_name_H-M    "P 1"
_symmetry_int_tables_number       1

loop_
  _symmetry_equiv_pos_as_xyz
  'x, y, z'

loop_
  _atom_site_label
  _atom_site_occupancy
  _atom_site_fract_x
  _atom_site_fract_y
  _atom_site_fract_z
  _atom_site_thermal_displace_type
  _atom_site_B_iso_or_equiv
  _atom_site_type_symbol
  C1       1.0000 0.65711  0.79822  0.08290  Biso   1.000  C
  C2       1.0000 0.34289  0.20178  0.91710  Biso   1.000  C
  C3       1.0000 0.85889  0.20178  0.41710  Biso   1.000  C
  C4       1.0000 0.14111  0.79822  0.58290  Biso   1.000  C
  C5       1.0000 0.78464  0.78188  0.13320  Biso   1.000  C
  C6       1.0000 0.21536  0.21812  0.86680  Biso   1.000  C
  C7       1.0000 0.00276  0.21812  0.36680  Biso   1.000  C
  C8       1.0000 0.99724  0.78188  0.63320  Biso   1.000  C
  C9       1.0000 0.86976  0.83372  0.18580  Biso   1.000  C
  C10      1.0000 0.13024  0.16628  0.81420  Biso   1.000  C
  C11      1.0000 0.03604  0.16628  0.31420  Biso   1.000  C
  C12      1.0000 0.96396  0.83372  0.68580  Biso   1.000  C
  C13      1.0000 0.08163  0.84986  0.19950  Biso   1.000  C
  C14      1.0000 0.91837  0.15014  0.80050  Biso   1.000  C
  C15      1.0000 0.23177  0.15014  0.30050  Biso   1.000  C
  C16      1.0000 0.76823  0.84986  0.69950  Biso   1.000  C
  C17      1.0000 0.15470  0.89880  0.24980  Biso   1.000  C
  C18      1.0000 0.84530  0.10120  0.75020  Biso   1.000  C
  C19      1.0000 0.25590  0.10120  0.25020  Biso   1.000  C
  C20      1.0000 0.74410  0.89880  0.74980  Biso   1.000  C
  C21      1.0000 0.01776  0.93032  0.28680  Biso   1.000  C
  C22      1.0000 0.98224  0.06968  0.71320  Biso   1.000  C
  C23      1.0000 0.08744  0.06968  0.21320  Biso   1.000  C
  C24      1.0000 0.91256  0.93032  0.78680  Biso   1.000  C
  C25      1.0000 0.80686  0.91552  0.27270  Biso   1.000  C
  C26      1.0000 0.19314  0.08448  0.72730  Biso   1.000  C
  C27      1.0000 0.89134  0.08448  0.22730  Biso   1.000  C
  C28      1.0000 0.10866  0.91552  0.77270  Biso   1.000  C
  C29      1.0000 0.73549  0.86658  0.22270  Biso   1.000  C
  C30      1.0000 0.26451  0.13342  0.77730  Biso   1.000  C
  C31      1.0000 0.86891  0.13342  0.27730  Biso   1.000  C
  C32      1.0000 0.13109  0.86658  0.72270  Biso   1.000  C
  C33      1.0000 0.81314  0.71868  0.13310  Biso   1.000  C
  C34      1.0000 0.18686  0.28132  0.86690  Biso   1.000  C
  C35      1.0000 0.09446  0.28132  0.36690  Biso   1.000  C
  C36      1.0000 0.90554  0.71868  0.63310  Biso   1.000  C
  C37      1.0000 0.70516  0.66652  0.08730  Biso   1.000  C
  C38      1.0000 0.29484  0.33348  0.91270  Biso   1.000  C
  C39      1.0000 0.03864  0.33348  0.41270  Biso   1.000  C
  C40      1.0000 0.96136  0.66652  0.58730  Biso   1.000  C
  C41      1.0000 0.56787  0.68254  0.04070  Biso   1.000  C
  C42      1.0000 0.43213  0.31746  0.95930  Biso   1.000  C
  C43      1.0000 0.88533  0.31746  0.45930  Biso   1.000  C
  C44      1.0000 0.11467  0.68254  0.54070  Biso   1.000  C
  C45      1.0000 0.54957  0.75074  0.03930  Biso   1.000  C
  C46      1.0000 0.45043  0.24926  0.96070  Biso   1.000  C
  C47      1.0000 0.79883  0.24926  0.46070  Biso   1.000  C
  C48      1.0000 0.20117  0.75074  0.53930  Biso   1.000  C
  C49      1.0000 0.41209  0.76598  0.98930  Biso   1.000  C
  C50      1.0000 0.58791  0.23402  0.01070  Biso   1.000  C
  C51      1.0000 0.64611  0.23402  0.51070  Biso   1.000  C
  C52      1.0000 0.35389  0.76598  0.48930  Biso   1.000  C
  C53      1.0000 0.49435  0.79970  0.94050  Biso   1.000  C
  C54      1.0000 0.50565  0.20030  0.05950  Biso   1.000  C
  C55      1.0000 0.69465  0.20030  0.55950  Biso   1.000  C
  C56      1.0000 0.30535  0.79970  0.44050  Biso   1.000  C
  C57      1.0000 0.36225  0.81450  0.89520  Biso   1.000  C
  C58      1.0000 0.63775  0.18550  0.10480  Biso   1.000  C
  C59      1.0000 0.54775  0.18550  0.60480  Biso   1.000  C
  C60      1.0000 0.45225  0.81450  0.39520  Biso   1.000  C
  C61      1.0000 0.14807  0.79654  0.89800  Biso   1.000  C
  C62      1.0000 0.85193  0.20346  0.10200  Biso   1.000  C
  C63      1.0000 0.35153  0.20346  0.60200  Biso   1.000  C
  C64      1.0000 0.64847  0.79654  0.39800  Biso   1.000  C
  C65      1.0000 0.06660  0.76300  0.94520  Biso   1.000  C
  C66      1.0000 0.93340  0.23700  0.05480  Biso   1.000  C
  C67      1.0000 0.30360  0.23700  0.55480  Biso   1.000  C
  C68      1.0000 0.69640  0.76300  0.44520  Biso   1.000  C
  C69      1.0000 0.19440  0.74820  0.99050  Biso   1.000  C
  C70      1.0000 0.80560  0.25180  0.00950  Biso   1.000  C
  C71      1.0000 0.44620  0.25180  0.50950  Biso   1.000  C
  C72      1.0000 0.55380  0.74820  0.49050  Biso   1.000  C
  C73      1.0000 0.45893  0.63226  0.99790  Biso   1.000  C
  C74      1.0000 0.54107  0.36774  0.00210  Biso   1.000  C
  C75      1.0000 0.82667  0.36774  0.50210  Biso   1.000  C
  C76      1.0000 0.17333  0.63226  0.49790  Biso   1.000  C
  C77      1.0000 0.47502  0.56604  0.99840  Biso   1.000  C
  C78      1.0000 0.52498  0.43396  0.00160  Biso   1.000  C
  C79      1.0000 0.90898  0.43396  0.50160  Biso   1.000  C
  C80      1.0000 0.09102  0.56604  0.49840  Biso   1.000  C
  C81      1.0000 0.61496  0.54992  0.04460  Biso   1.000  C
  C82      1.0000 0.38504  0.45008  0.95540  Biso   1.000  C
  C83      1.0000 0.06504  0.45008  0.45540  Biso   1.000  C
  C84      1.0000 0.93496  0.54992  0.54460  Biso   1.000  C
  C85      1.0000 0.63867  0.48434  0.04590  Biso   1.000  C
  C86      1.0000 0.36133  0.51566  0.95410  Biso   1.000  C
  C87      1.0000 0.15433  0.51566  0.45410  Biso   1.000  C
  C88      1.0000 0.84567  0.48434  0.54590  Biso   1.000  C
  C89      1.0000 0.78341  0.46802  0.09250  Biso   1.000  C
  C90      1.0000 0.21659  0.53198  0.90750  Biso   1.000  C
  C91      1.0000 0.31539  0.53198  0.40750  Biso   1.000  C
  C92      1.0000 0.68461  0.46802  0.59250  Biso   1.000  C
  C93      1.0000 0.74064  0.47388  0.15640  Biso   1.000  C
  C94      1.0000 0.25936  0.52612  0.84360  Biso   1.000  C
  C95      1.0000 0.26676  0.52612  0.34360  Biso   1.000  C
  C96      1.0000 0.73324  0.47388  0.65640  Biso   1.000  C
  C97      1.0000 0.87547  0.45914  0.19990  Biso   1.000  C
  C98      1.0000 0.12453  0.54086  0.80010  Biso   1.000  C
  C99      1.0000 0.41633  0.54086  0.30010  Biso   1.000  C
  C100     1.0000 0.58367  0.45914  0.69990  Biso   1.000  C
  C101     1.0000 0.05874  0.43728  0.18060  Biso   1.000  C
  C102     1.0000 0.94126  0.56272  0.81940  Biso   1.000  C
  C103     1.0000 0.62146  0.56272  0.31940  Biso   1.000  C
  C104     1.0000 0.37854  0.43728  0.68060  Biso   1.000  C
  C105     1.0000 0.10615  0.43070  0.11750  Biso   1.000  C
  C106     1.0000 0.89385  0.56930  0.88250  Biso   1.000  C
  C107     1.0000 0.67545  0.56930  0.38250  Biso   1.000  C
  C108     1.0000 0.32455  0.43070  0.61750  Biso   1.000  C
  C109     1.0000 0.97024  0.44648  0.07330  Biso   1.000  C
  C110     1.0000 0.02976  0.55352  0.92670  Biso   1.000  C
  C111     1.0000 0.52376  0.55352  0.42670  Biso   1.000  C
  C112     1.0000 0.47624  0.44648  0.57330  Biso   1.000  C
  C113     1.0000 0.72491  0.60162  0.08740  Biso   1.000  C
  C114     1.0000 0.27509  0.39838  0.91260  Biso   1.000  C
  C115     1.0000 0.12329  0.39838  0.41260  Biso   1.000  C
  C116     1.0000 0.87671  0.60162  0.58740  Biso   1.000  C
  C117     1.0000 0.95028  0.70136  0.18310  Biso   1.000  C
  C118     1.0000 0.04972  0.29864  0.81690  Biso   1.000  C
  C119     1.0000 0.24892  0.29864  0.31690  Biso   1.000  C
  C120     1.0000 0.75108  0.70136  0.68310  Biso   1.000  C
  C121     1.0000 0.13952  0.68144  0.16730  Biso   1.000  C
  C122     1.0000 0.86048  0.31856  0.83270  Biso   1.000  C
  C123     1.0000 0.45808  0.31856  0.33270  Biso   1.000  C
  C124     1.0000 0.54192  0.68144  0.66730  Biso   1.000  C
  C125     1.0000 0.27302  0.67024  0.21370  Biso   1.000  C
  C126     1.0000 0.72698  0.32976  0.78630  Biso   1.000  C
  C127     1.0000 0.60278  0.32976  0.28630  Biso   1.000  C
  C128     1.0000 0.39722  0.67024  0.71370  Biso   1.000  C
  C129     1.0000 0.21895  0.67970  0.27660  Biso   1.000  C
  C130     1.0000 0.78105  0.32030  0.72340  Biso   1.000  C
  C131     1.0000 0.53925  0.32030  0.22340  Biso   1.000  C
  C132     1.0000 0.46075  0.67970  0.77660  Biso   1.000  C
  C133     1.0000 0.02851  0.69682  0.29260  Biso   1.000  C
  C134     1.0000 0.97149  0.30318  0.70740  Biso   1.000  C
  C135     1.0000 0.33169  0.30318  0.20740  Biso   1.000  C
  C136     1.0000 0.66831  0.69682  0.79260  Biso   1.000  C
  C137     1.0000 0.89307  0.70794  0.24650  Biso   1.000  C
  C138     1.0000 0.10693  0.29206  0.75350  Biso   1.000  C
  C139     1.0000 0.18513  0.29206  0.25350  Biso   1.000  C
  C140     1.0000 0.81487  0.70794  0.74650  Biso   1.000  C
  C141     1.0000 0.65801  0.86862  0.07970  Biso   1.000  C
  C142     1.0000 0.34199  0.13138  0.92030  Biso   1.000  C
  C143     1.0000 0.78939  0.13138  0.42030  Biso   1.000  C
  C144     1.0000 0.21061  0.86862  0.57970  Biso   1.000  C
  C145     1.0000 0.84137  0.90814  0.06890  Biso   1.000  C
  C146     1.0000 0.15863  0.09186  0.93110  Biso   1.000  C
  C147     1.0000 0.93323  0.09186  0.43110  Biso   1.000  C
  C148     1.0000 0.06677  0.90814  0.56890  Biso   1.000  C
  C149     1.0000 0.84411  0.97342  0.06440  Biso   1.000  C
  C150     1.0000 0.15589  0.02658  0.93560  Biso   1.000  C
  C151     1.0000 0.87069  0.02658  0.43560  Biso   1.000  C
  C152     1.0000 0.12931  0.97342  0.56440  Biso   1.000  C
  C153     1.0000 0.66642  0.99984  0.07060  Biso   1.000  C
  C154     1.0000 0.33358  0.00016  0.92940  Biso   1.000  C
  C155     1.0000 0.66658  0.00016  0.42940  Biso   1.000  C
  C156     1.0000 0.33342  0.99984  0.57060  Biso   1.000  C
  C157     1.0000 0.48205  0.96230  0.08130  Biso   1.000  C
  C158     1.0000 0.51795  0.03770  0.91870  Biso   1.000  C
  C159     1.0000 0.51975  0.03770  0.41870  Biso   1.000  C
  C160     1.0000 0.48025  0.96230  0.58130  Biso   1.000  C
  C161     1.0000 0.47696  0.89632  0.08450  Biso   1.000  C
  C162     1.0000 0.52304  0.10368  0.91550  Biso   1.000  C
  C163     1.0000 0.58064  0.10368  0.41550  Biso   1.000  C
  C164     1.0000 0.41936  0.89632  0.58450  Biso   1.000  C
  H1       1.0000 0.19165  0.82389  0.17094  Biso   1.000  H
  H2       1.0000 0.80835  0.17611  0.82906  Biso   1.000  H
  H3       1.0000 0.36776  0.17611  0.32906  Biso   1.000  H
  H4       1.0000 0.63224  0.82389  0.67094  Biso   1.000  H
  H5       1.0000 0.32271  0.91194  0.25963  Biso   1.000  H
  H6       1.0000 0.67729  0.08806  0.74037  Biso   1.000  H
  H7       1.0000 0.41078  0.08806  0.24037  Biso   1.000  H
  H8       1.0000 0.58922  0.91194  0.75963  Biso   1.000  H
  H9       1.0000 0.07542  0.96936  0.32580  Biso   1.000  H
  H10      1.0000 0.92458  0.03064  0.67420  Biso   1.000  H
  H11      1.0000 0.10606  0.03064  0.17420  Biso   1.000  H
  H12      1.0000 0.89394  0.96936  0.82580  Biso   1.000  H
  H13      1.0000 0.69712  0.94157  0.30141  Biso   1.000  H
  H14      1.0000 0.30288  0.05843  0.69859  Biso   1.000  H
  H15      1.0000 0.75555  0.05843  0.19859  Biso   1.000  H
  H16      1.0000 0.24445  0.94157  0.80141  Biso   1.000  H
  H17      1.0000 0.56764  0.85372  0.21248  Biso   1.000  H
  H18      1.0000 0.43236  0.14628  0.78752  Biso   1.000  H
  H19      1.0000 0.71393  0.14628  0.28752  Biso   1.000  H
  H20      1.0000 0.28607  0.85372  0.71248  Biso   1.000  H
  H21      1.0000 0.66289  0.81476  0.93817  Biso   1.000  H
  H22      1.0000 0.33711  0.18524  0.06183  Biso   1.000  H
  H23      1.0000 0.84814  0.18524  0.56183  Biso   1.000  H
  H24      1.0000 0.15186  0.81476  0.43817  Biso   1.000  H
  H25      1.0000 0.42839  0.84020  0.85664  Biso   1.000  H
  H26      1.0000 0.57161  0.15980  0.14336  Biso   1.000  H
  H27      1.0000 0.58819  0.15980  0.64336  Biso   1.000  H
  H28      1.0000 0.41181  0.84020  0.35664  Biso   1.000  H
  H29      1.0000 0.04630  0.80921  0.86205  Biso   1.000  H
  H30      1.0000 0.95370  0.19079  0.13795  Biso   1.000  H
  H31      1.0000 0.23709  0.19078  0.63795  Biso   1.000  H
  H32      1.0000 0.76291  0.80922  0.36205  Biso   1.000  H
  H33      1.0000 0.89805  0.74786  0.94773  Biso   1.000  H
  H34      1.0000 0.10195  0.25214  0.05227  Biso   1.000  H
  H35      1.0000 0.15019  0.25214  0.55227  Biso   1.000  H
  H36      1.0000 0.84981  0.74786  0.44773  Biso   1.000  H
  H37      1.0000 0.12631  0.72217  0.02856  Biso   1.000  H
  H38      1.0000 0.87369  0.27783  0.97144  Biso   1.000  H
  H39      1.0000 0.40414  0.27784  0.47144  Biso   1.000  H
  H40      1.0000 0.59586  0.72216  0.52856  Biso   1.000  H
  H41      1.0000 0.35740  0.64403  0.96162  Biso   1.000  H
  H42      1.0000 0.64260  0.35597  0.03838  Biso   1.000  H
  H43      1.0000 0.71336  0.35597  0.53838  Biso   1.000  H
  H44      1.0000 0.28664  0.64403  0.46162  Biso   1.000  H
  H45      1.0000 0.59434  0.49002  0.17276  Biso   1.000  H
  H46      1.0000 0.40566  0.50998  0.82724  Biso   1.000  H
  H47      1.0000 0.10431  0.50998  0.32724  Biso   1.000  H
  H48      1.0000 0.89569  0.49002  0.67276  Biso   1.000  H
  H49      1.0000 0.83403  0.46358  0.25031  Biso   1.000  H
  H50      1.0000 0.16597  0.53642  0.74969  Biso   1.000  H
  H51      1.0000 0.37045  0.53642  0.24969  Biso   1.000  H
  H52      1.0000 0.62955  0.46358  0.75031  Biso   1.000  H
  H53      1.0000 0.16301  0.42438  0.21564  Biso   1.000  H
  H54      1.0000 0.83699  0.57562  0.78436  Biso   1.000  H
  H55      1.0000 0.73864  0.57562  0.28436  Biso   1.000  H
  H56      1.0000 0.26136  0.42438  0.71564  Biso   1.000  H
  H57      1.0000 0.24973  0.41315  0.10078  Biso   1.000  H
  H58      1.0000 0.75027  0.58685  0.89922  Biso   1.000  H
  H59      1.0000 0.83658  0.58686  0.39922  Biso   1.000  H
  H60      1.0000 0.16342  0.41314  0.60078  Biso   1.000  H
  H61      1.0000 0.00923  0.44136  0.02269  Biso   1.000  H
  H62      1.0000 0.99077  0.55864  0.97731  Biso   1.000  H
  H63      1.0000 0.56787  0.55864  0.47731  Biso   1.000  H
  H64      1.0000 0.43213  0.44136  0.52269  Biso   1.000  H
  H65      1.0000 0.83105  0.59006  0.12256  Biso   1.000  H
  H66      1.0000 0.16895  0.40994  0.87744  Biso   1.000  H
  H67      1.0000 0.24098  0.40994  0.37744  Biso   1.000  H
  H68      1.0000 0.75902  0.59006  0.62256  Biso   1.000  H
  H69      1.0000 0.18603  0.67530  0.11729  Biso   1.000  H
  H70      1.0000 0.81397  0.32470  0.88271  Biso   1.000  H
  H71      1.0000 0.51073  0.32470  0.38271  Biso   1.000  H
  H72      1.0000 0.48927  0.67530  0.61729  Biso   1.000  H
  H73      1.0000 0.42243  0.65490  0.19987  Biso   1.000  H
  H74      1.0000 0.57757  0.34510  0.80013  Biso   1.000  H
  H75      1.0000 0.76753  0.34510  0.30013  Biso   1.000  H
  H76      1.0000 0.23247  0.65490  0.69987  Biso   1.000  H
  H77      1.0000 0.32576  0.67242  0.31396  Biso   1.000  H
  H78      1.0000 0.67424  0.32758  0.68604  Biso   1.000  H
  H79      1.0000 0.65334  0.32758  0.18604  Biso   1.000  H
  H80      1.0000 0.34666  0.67242  0.81396  Biso   1.000  H
  H81      1.0000 0.98337  0.70260  0.34272  Biso   1.000  H
  H82      1.0000 0.01663  0.29740  0.65728  Biso   1.000  H
  H83      1.0000 0.28077  0.29740  0.15728  Biso   1.000  H
  H84      1.0000 0.71923  0.70260  0.84272  Biso   1.000  H
  H85      1.0000 0.74270  0.72266  0.26009  Biso   1.000  H
  H86      1.0000 0.25730  0.27734  0.73991  Biso   1.000  H
  H87      1.0000 0.02004  0.27734  0.23991  Biso   1.000  H
  H88      1.0000 0.97996  0.72266  0.76009  Biso   1.000  H
  H89      1.0000 0.98609  0.88729  0.06303  Biso   1.000  H
  H90      1.0000 0.01391  0.11271  0.93697  Biso   1.000  H
  H91      1.0000 0.09880  0.11271  0.43697  Biso   1.000  H
  H92      1.0000 0.90120  0.88729  0.56303  Biso   1.000  H
  H93      1.0000 0.99143  0.00351  0.05539  Biso   1.000  H
  H94      1.0000 0.00857  0.99649  0.94461  Biso   1.000  H
  H95      1.0000 0.98793  0.99649  0.44461  Biso   1.000  H
  H96      1.0000 0.01207  0.00351  0.55539  Biso   1.000  H
  H97      1.0000 0.66992  0.05147  0.06658  Biso   1.000  H
  H98      1.0000 0.33008  0.94853  0.93342  Biso   1.000  H
  H99      1.0000 0.61845  0.94853  0.43342  Biso   1.000  H
  H100     1.0000 0.38155  0.05147  0.56658  Biso   1.000  H
  H101     1.0000 0.33749  0.98324  0.08605  Biso   1.000  H
  H102     1.0000 0.66251  0.01676  0.91395  Biso   1.000  H
  H103     1.0000 0.35425  0.01676  0.41395  Biso   1.000  H
  H104     1.0000 0.64575  0.98324  0.58605  Biso   1.000  H
  H105     1.0000 0.32843  0.86625  0.09202  Biso   1.000  H
  H106     1.0000 0.67157  0.13375  0.90798  Biso   1.000  H
  H107     1.0000 0.46218  0.13375  0.40798  Biso   1.000  H
  H108     1.0000 0.53782  0.86625  0.59202  Biso   1.000  H
