data_image0
_cell_length_a       4.95
_cell_length_b       21.313
_cell_length_c       22.52
_cell_angle_alpha    90
_cell_angle_beta     90
_cell_angle_gamma    90

_symmetry_space_group_name_H-M    "P 1"
_symmetry_int_tables_number       1

loop_
  _symmetry_equiv_pos_as_xyz
  'x, y, z'

loop_
  _atom_site_label
  _atom_site_occupancy
  _atom_site_fract_x
  _atom_site_fract_y
  _atom_site_fract_z
  _atom_site_thermal_displace_type
  _atom_site_B_iso_or_equiv
  _atom_site_type_symbol
  H1       1.0000 0.31191  0.30259  0.17719  Biso   1.000  H
  H2       1.0000 0.68809  0.69741  0.67719  Biso   1.000  H
  H3       1.0000 0.18809  0.80259  0.17719  Biso   1.000  H
  H4       1.0000 0.81191  0.19741  0.67719  Biso   1.000  H
  H5       1.0000 0.19696  0.26265  0.08045  Biso   1.000  H
  H6       1.0000 0.80304  0.73735  0.58045  Biso   1.000  H
  H7       1.0000 0.30304  0.76265  0.08045  Biso   1.000  H
  H8       1.0000 0.69696  0.23735  0.58045  Biso   1.000  H
  H9       1.0000 0.84153  0.31305  0.02002  Biso   1.000  H
  H10      1.0000 0.15847  0.68695  0.52002  Biso   1.000  H
  H11      1.0000 0.65847  0.81305  0.02002  Biso   1.000  H
  H12      1.0000 0.34153  0.18695  0.52002  Biso   1.000  H
  H13      1.0000 0.47185  0.38946  0.01197  Biso   1.000  H
  H14      1.0000 0.52815  0.61054  0.51197  Biso   1.000  H
  H15      1.0000 0.02815  0.88946  0.01197  Biso   1.000  H
  H16      1.0000 0.97185  0.11054  0.51197  Biso   1.000  H
  H17      1.0000 0.25606  0.48474  0.04631  Biso   1.000  H
  H18      1.0000 0.74394  0.51526  0.54631  Biso   1.000  H
  H19      1.0000 0.24394  0.98474  0.04631  Biso   1.000  H
  H20      1.0000 0.75606  0.01526  0.54631  Biso   1.000  H
  H21      1.0000 0.45659  0.56749  0.02523  Biso   1.000  H
  H22      1.0000 0.54341  0.43251  0.52523  Biso   1.000  H
  H23      1.0000 0.04341  0.06749  0.02523  Biso   1.000  H
  H24      1.0000 0.95659  0.93251  0.52523  Biso   1.000  H
  H25      1.0000 0.18686  0.63203  0.95773  Biso   1.000  H
  H26      1.0000 0.81314  0.36797  0.45773  Biso   1.000  H
  H27      1.0000 0.31314  0.13203  0.95773  Biso   1.000  H
  H28      1.0000 0.68686  0.86797  0.45773  Biso   1.000  H
  H29      1.0000 0.82505  0.70057  0.99715  Biso   1.000  H
  H30      1.0000 0.17495  0.29943  0.49715  Biso   1.000  H
  H31      1.0000 0.67495  0.20057  0.99715  Biso   1.000  H
  H32      1.0000 0.32505  0.79943  0.49715  Biso   1.000  H
  H33      1.0000 0.76080  0.70936  0.10402  Biso   1.000  H
  H34      1.0000 0.23920  0.29064  0.60402  Biso   1.000  H
  H35      1.0000 0.73920  0.20936  0.10402  Biso   1.000  H
  H36      1.0000 0.26080  0.79064  0.60402  Biso   1.000  H
  H37      1.0000 0.73212  0.71894  0.18990  Biso   1.000  H
  H38      1.0000 0.26788  0.28106  0.68990  Biso   1.000  H
  H39      1.0000 0.76788  0.21894  0.18990  Biso   1.000  H
  H40      1.0000 0.23212  0.78106  0.68990  Biso   1.000  H
  H41      1.0000 0.55571  0.77559  0.27243  Biso   1.000  H
  H42      1.0000 0.44429  0.22441  0.77243  Biso   1.000  H
  H43      1.0000 0.94429  0.27559  0.27243  Biso   1.000  H
  H44      1.0000 0.05571  0.72441  0.77243  Biso   1.000  H
  H45      1.0000 0.55152  0.79956  0.37955  Biso   1.000  H
  H46      1.0000 0.44848  0.20044  0.87955  Biso   1.000  H
  H47      1.0000 0.94848  0.29956  0.37955  Biso   1.000  H
  H48      1.0000 0.05152  0.70044  0.87955  Biso   1.000  H
  H49      1.0000 0.88060  0.74665  0.44613  Biso   1.000  H
  H50      1.0000 0.11940  0.25335  0.94613  Biso   1.000  H
  H51      1.0000 0.61940  0.24665  0.44613  Biso   1.000  H
  H52      1.0000 0.38060  0.75335  0.94613  Biso   1.000  H
  H53      1.0000 0.20274  0.67042  0.40784  Biso   1.000  H
  H54      1.0000 0.79726  0.32958  0.90784  Biso   1.000  H
  H55      1.0000 0.29726  0.17042  0.40784  Biso   1.000  H
  H56      1.0000 0.70274  0.82958  0.90784  Biso   1.000  H
  H57      1.0000 0.46391  0.61540  0.37218  Biso   1.000  H
  H58      1.0000 0.53609  0.38460  0.87218  Biso   1.000  H
  H59      1.0000 0.03609  0.11540  0.37218  Biso   1.000  H
  H60      1.0000 0.96391  0.88460  0.87218  Biso   1.000  H
  H61      1.0000 0.74202  0.57928  0.41957  Biso   1.000  H
  H62      1.0000 0.25798  0.42072  0.91957  Biso   1.000  H
  H63      1.0000 0.75798  0.07928  0.41957  Biso   1.000  H
  H64      1.0000 0.24202  0.92072  0.91957  Biso   1.000  H
  H65      1.0000 0.09151  0.52970  0.48013  Biso   1.000  H
  H66      1.0000 0.90849  0.47030  0.98013  Biso   1.000  H
  H67      1.0000 0.40849  0.02970  0.48013  Biso   1.000  H
  H68      1.0000 0.59151  0.97030  0.98013  Biso   1.000  H
  H69      1.0000 0.37017  0.44478  0.43802  Biso   1.000  H
  H70      1.0000 0.62983  0.55522  0.93802  Biso   1.000  H
  H71      1.0000 0.12983  0.94478  0.43802  Biso   1.000  H
  H72      1.0000 0.87017  0.05522  0.93802  Biso   1.000  H
  H73      1.0000 0.49209  0.37512  0.35409  Biso   1.000  H
  H74      1.0000 0.50791  0.62488  0.85409  Biso   1.000  H
  H75      1.0000 0.00791  0.87512  0.35409  Biso   1.000  H
  H76      1.0000 0.99209  0.12488  0.85409  Biso   1.000  H
  H77      1.0000 0.41232  0.33957  0.25408  Biso   1.000  H
  H78      1.0000 0.58768  0.66043  0.75408  Biso   1.000  H
  H79      1.0000 0.08768  0.83957  0.25408  Biso   1.000  H
  H80      1.0000 0.91232  0.16043  0.75408  Biso   1.000  H
  C1       1.0000 0.15500  0.32650  0.15200  Biso   1.000  C
  C2       1.0000 0.84500  0.67350  0.65200  Biso   1.000  C
  C3       1.0000 0.34500  0.82650  0.15200  Biso   1.000  C
  C4       1.0000 0.65500  0.17350  0.65200  Biso   1.000  C
  C5       1.0000 0.08920  0.30360  0.09720  Biso   1.000  C
  C6       1.0000 0.91080  0.69640  0.59720  Biso   1.000  C
  C7       1.0000 0.41080  0.80360  0.09720  Biso   1.000  C
  C8       1.0000 0.58920  0.19640  0.59720  Biso   1.000  C
  C9       1.0000 0.89640  0.33170  0.06350  Biso   1.000  C
  C10      1.0000 0.10360  0.66830  0.56350  Biso   1.000  C
  C11      1.0000 0.60360  0.83170  0.06350  Biso   1.000  C
  C12      1.0000 0.39640  0.16830  0.56350  Biso   1.000  C
  C13      1.0000 0.75840  0.38410  0.08460  Biso   1.000  C
  C14      1.0000 0.24160  0.61590  0.58460  Biso   1.000  C
  C15      1.0000 0.74160  0.88410  0.08460  Biso   1.000  C
  C16      1.0000 0.25840  0.11590  0.58460  Biso   1.000  C
  C17      1.0000 0.54250  0.41260  0.05230  Biso   1.000  C
  C18      1.0000 0.45750  0.58740  0.55230  Biso   1.000  C
  C19      1.0000 0.95750  0.91260  0.05230  Biso   1.000  C
  C20      1.0000 0.04250  0.08740  0.55230  Biso   1.000  C
  C21      1.0000 0.42570  0.46570  0.07100  Biso   1.000  C
  C22      1.0000 0.57430  0.53430  0.57100  Biso   1.000  C
  C23      1.0000 0.07430  0.96570  0.07100  Biso   1.000  C
  C24      1.0000 0.92570  0.03430  0.57100  Biso   1.000  C
  C25      1.0000 0.50220  0.49600  0.12550  Biso   1.000  C
  C26      1.0000 0.49780  0.50400  0.62550  Biso   1.000  C
  C27      1.0000 0.99780  0.99600  0.12550  Biso   1.000  C
  C28      1.0000 0.00220  0.00400  0.62550  Biso   1.000  C
  C29      1.0000 0.38640  0.55250  0.14460  Biso   1.000  C
  C30      1.0000 0.61360  0.44750  0.64460  Biso   1.000  C
  C31      1.0000 0.11360  0.05250  0.14460  Biso   1.000  C
  C32      1.0000 0.88640  0.94750  0.64460  Biso   1.000  C
  C33      1.0000 0.23940  0.59510  0.10500  Biso   1.000  C
  C34      1.0000 0.76060  0.40490  0.60500  Biso   1.000  C
  C35      1.0000 0.26060  0.09510  0.10500  Biso   1.000  C
  C36      1.0000 0.73940  0.90490  0.60500  Biso   1.000  C
  C37      1.0000 0.29300  0.59590  0.04270  Biso   1.000  C
  C38      1.0000 0.70700  0.40410  0.54270  Biso   1.000  C
  C39      1.0000 0.20700  0.09590  0.04270  Biso   1.000  C
  C40      1.0000 0.79300  0.90410  0.54270  Biso   1.000  C
  C41      1.0000 0.14420  0.63340  0.00520  Biso   1.000  C
  C42      1.0000 0.85580  0.36660  0.50520  Biso   1.000  C
  C43      1.0000 0.35580  0.13340  0.00520  Biso   1.000  C
  C44      1.0000 0.64420  0.86660  0.50520  Biso   1.000  C
  C45      1.0000 0.94730  0.67210  0.02710  Biso   1.000  C
  C46      1.0000 0.05270  0.32790  0.52710  Biso   1.000  C
  C47      1.0000 0.55270  0.17210  0.02710  Biso   1.000  C
  C48      1.0000 0.44730  0.82790  0.52710  Biso   1.000  C
  C49      1.0000 0.90850  0.67610  0.08710  Biso   1.000  C
  C50      1.0000 0.09150  0.32390  0.58710  Biso   1.000  C
  C51      1.0000 0.59150  0.17610  0.08710  Biso   1.000  C
  C52      1.0000 0.40850  0.82390  0.58710  Biso   1.000  C
  C53      1.0000 0.05910  0.64010  0.12740  Biso   1.000  C
  C54      1.0000 0.94090  0.35990  0.62740  Biso   1.000  C
  C55      1.0000 0.44090  0.14010  0.12740  Biso   1.000  C
  C56      1.0000 0.55910  0.85990  0.62740  Biso   1.000  C
  C57      1.0000 0.04660  0.65060  0.19190  Biso   1.000  C
  C58      1.0000 0.95340  0.34940  0.69190  Biso   1.000  C
  C59      1.0000 0.45340  0.15060  0.19190  Biso   1.000  C
  C60      1.0000 0.54660  0.84940  0.69190  Biso   1.000  C
  C61      1.0000 0.88000  0.69390  0.21680  Biso   1.000  C
  C62      1.0000 0.12000  0.30610  0.71680  Biso   1.000  C
  C63      1.0000 0.62000  0.19390  0.21680  Biso   1.000  C
  C64      1.0000 0.38000  0.80610  0.71680  Biso   1.000  C
  C65      1.0000 0.88680  0.70860  0.27780  Biso   1.000  C
  C66      1.0000 0.11320  0.29140  0.77780  Biso   1.000  C
  C67      1.0000 0.61320  0.20860  0.27780  Biso   1.000  C
  C68      1.0000 0.38680  0.79140  0.77780  Biso   1.000  C
  C69      1.0000 0.69910  0.75330  0.30240  Biso   1.000  C
  C70      1.0000 0.30090  0.24670  0.80240  Biso   1.000  C
  C71      1.0000 0.80090  0.25330  0.30240  Biso   1.000  C
  C72      1.0000 0.19910  0.74670  0.80240  Biso   1.000  C
  C73      1.0000 0.69750  0.76640  0.36150  Biso   1.000  C
  C74      1.0000 0.30250  0.23360  0.86150  Biso   1.000  C
  C75      1.0000 0.80250  0.26640  0.36150  Biso   1.000  C
  C76      1.0000 0.19750  0.73360  0.86150  Biso   1.000  C
  C77      1.0000 0.88350  0.73600  0.39870  Biso   1.000  C
  C78      1.0000 0.11650  0.26400  0.89870  Biso   1.000  C
  C79      1.0000 0.61650  0.23600  0.39870  Biso   1.000  C
  C80      1.0000 0.38350  0.76400  0.89870  Biso   1.000  C
  C81      1.0000 0.06350  0.69340  0.37750  Biso   1.000  C
  C82      1.0000 0.93650  0.30660  0.87750  Biso   1.000  C
  C83      1.0000 0.43650  0.19340  0.37750  Biso   1.000  C
  C84      1.0000 0.56350  0.80660  0.87750  Biso   1.000  C
  C85      1.0000 0.06780  0.67800  0.31540  Biso   1.000  C
  C86      1.0000 0.93220  0.32200  0.81540  Biso   1.000  C
  C87      1.0000 0.43220  0.17800  0.31540  Biso   1.000  C
  C88      1.0000 0.56780  0.82200  0.81540  Biso   1.000  C
  C89      1.0000 0.25250  0.63200  0.29070  Biso   1.000  C
  C90      1.0000 0.74750  0.36800  0.79070  Biso   1.000  C
  C91      1.0000 0.24750  0.13200  0.29070  Biso   1.000  C
  C92      1.0000 0.75250  0.86800  0.79070  Biso   1.000  C
  C93      1.0000 0.44600  0.60160  0.32600  Biso   1.000  C
  C94      1.0000 0.55400  0.39840  0.82600  Biso   1.000  C
  C95      1.0000 0.05400  0.10160  0.32600  Biso   1.000  C
  C96      1.0000 0.94600  0.89840  0.82600  Biso   1.000  C
  C97      1.0000 0.60860  0.55530  0.30440  Biso   1.000  C
  C98      1.0000 0.39140  0.44470  0.80440  Biso   1.000  C
  C99      1.0000 0.89140  0.05530  0.30440  Biso   1.000  C
  C100     1.0000 0.10860  0.94470  0.80440  Biso   1.000  C
  C101     1.0000 0.81830  0.52420  0.34120  Biso   1.000  C
  C102     1.0000 0.18170  0.47580  0.84120  Biso   1.000  C
  C103     1.0000 0.68170  0.02420  0.34120  Biso   1.000  C
  C104     1.0000 0.31830  0.97580  0.84120  Biso   1.000  C
  C105     1.0000 0.86280  0.54190  0.40020  Biso   1.000  C
  C106     1.0000 0.13720  0.45810  0.90020  Biso   1.000  C
  C107     1.0000 0.63720  0.04190  0.40020  Biso   1.000  C
  C108     1.0000 0.36280  0.95810  0.90020  Biso   1.000  C
  C109     1.0000 0.05860  0.51390  0.43470  Biso   1.000  C
  C110     1.0000 0.94140  0.48610  0.93470  Biso   1.000  C
  C111     1.0000 0.44140  0.01390  0.43470  Biso   1.000  C
  C112     1.0000 0.55860  0.98610  0.93470  Biso   1.000  C
  C113     1.0000 0.21280  0.46710  0.41160  Biso   1.000  C
  C114     1.0000 0.78720  0.53290  0.91160  Biso   1.000  C
  C115     1.0000 0.28720  0.96710  0.41160  Biso   1.000  C
  C116     1.0000 0.71280  0.03290  0.91160  Biso   1.000  C
  C117     1.0000 0.17220  0.44590  0.35300  Biso   1.000  C
  C118     1.0000 0.82780  0.55410  0.85300  Biso   1.000  C
  C119     1.0000 0.32780  0.94590  0.35300  Biso   1.000  C
  C120     1.0000 0.67220  0.05410  0.85300  Biso   1.000  C
  C121     1.0000 0.33280  0.39630  0.32740  Biso   1.000  C
  C122     1.0000 0.66720  0.60370  0.82740  Biso   1.000  C
  C123     1.0000 0.16720  0.89630  0.32740  Biso   1.000  C
  C124     1.0000 0.83280  0.10370  0.82740  Biso   1.000  C
  C125     1.0000 0.28660  0.37690  0.27210  Biso   1.000  C
  C126     1.0000 0.71340  0.62310  0.77210  Biso   1.000  C
  C127     1.0000 0.21340  0.87690  0.27210  Biso   1.000  C
  C128     1.0000 0.78660  0.12310  0.77210  Biso   1.000  C
  C129     1.0000 0.08070  0.40420  0.23460  Biso   1.000  C
  C130     1.0000 0.91930  0.59580  0.73460  Biso   1.000  C
  C131     1.0000 0.41930  0.90420  0.23460  Biso   1.000  C
  C132     1.0000 0.58070  0.09580  0.73460  Biso   1.000  C
  C133     1.0000 0.02530  0.37970  0.17660  Biso   1.000  C
  C134     1.0000 0.97470  0.62030  0.67660  Biso   1.000  C
  C135     1.0000 0.47470  0.87970  0.17660  Biso   1.000  C
  C136     1.0000 0.52530  0.12030  0.67660  Biso   1.000  C
  C137     1.0000 0.82600  0.40900  0.14180  Biso   1.000  C
  C138     1.0000 0.17400  0.59100  0.64180  Biso   1.000  C
  C139     1.0000 0.67400  0.90900  0.14180  Biso   1.000  C
  C140     1.0000 0.32600  0.09100  0.64180  Biso   1.000  C
  C141     1.0000 0.68550  0.46420  0.16260  Biso   1.000  C
  C142     1.0000 0.31450  0.53580  0.66260  Biso   1.000  C
  C143     1.0000 0.81450  0.96420  0.16260  Biso   1.000  C
  C144     1.0000 0.18550  0.03580  0.66260  Biso   1.000  C
  C145     1.0000 0.40720  0.56980  0.20600  Biso   1.000  C
  C146     1.0000 0.59280  0.43020  0.70600  Biso   1.000  C
  C147     1.0000 0.09280  0.06980  0.20600  Biso   1.000  C
  C148     1.0000 0.90720  0.93020  0.70600  Biso   1.000  C
  C149     1.0000 0.23830  0.61870  0.22930  Biso   1.000  C
  C150     1.0000 0.76170  0.38130  0.72930  Biso   1.000  C
  C151     1.0000 0.26170  0.11870  0.22930  Biso   1.000  C
  C152     1.0000 0.73830  0.88130  0.72930  Biso   1.000  C
  C153     1.0000 0.58280  0.53640  0.24310  Biso   1.000  C
  C154     1.0000 0.41720  0.46360  0.74310  Biso   1.000  C
  C155     1.0000 0.91720  0.03640  0.24310  Biso   1.000  C
  C156     1.0000 0.08280  0.96360  0.74310  Biso   1.000  C
  C157     1.0000 0.73830  0.48590  0.22100  Biso   1.000  C
  C158     1.0000 0.26170  0.51410  0.72100  Biso   1.000  C
  C159     1.0000 0.76170  0.98590  0.22100  Biso   1.000  C
  C160     1.0000 0.23830  0.01410  0.72100  Biso   1.000  C
  C161     1.0000 0.93590  0.45440  0.25730  Biso   1.000  C
  C162     1.0000 0.06410  0.54560  0.75730  Biso   1.000  C
  C163     1.0000 0.56410  0.95440  0.25730  Biso   1.000  C
  C164     1.0000 0.43590  0.04560  0.75730  Biso   1.000  C
  C165     1.0000 0.97550  0.47530  0.31710  Biso   1.000  C
  C166     1.0000 0.02450  0.52470  0.81710  Biso   1.000  C
  C167     1.0000 0.52450  0.97530  0.31710  Biso   1.000  C
  C168     1.0000 0.47550  0.02470  0.81710  Biso   1.000  C
