data_image0
_cell_length_a       5.581
_cell_length_b       8.07
_cell_length_c       22.056
_cell_angle_alpha    97.91
_cell_angle_beta     90
_cell_angle_gamma    90

_symmetry_space_group_name_H-M    "P 1"
_symmetry_int_tables_number       1

loop_
  _symmetry_equiv_pos_as_xyz
  'x, y, z'

loop_
  _atom_site_label
  _atom_site_occupancy
  _atom_site_fract_x
  _atom_site_fract_y
  _atom_site_fract_z
  _atom_site_thermal_displace_type
  _atom_site_B_iso_or_equiv
  _atom_site_type_symbol
  H1       1.0000 0.98880  0.27600  0.48677  Biso   1.000  H
  H2       1.0000 0.01120  0.72400  0.51323  Biso   1.000  H
  H3       1.0000 0.48880  0.22400  0.51323  Biso   1.000  H
  H4       1.0000 0.51120  0.77600  0.48677  Biso   1.000  H
  H5       1.0000 0.67614  0.15406  0.41436  Biso   1.000  H
  H6       1.0000 0.32386  0.84594  0.58564  Biso   1.000  H
  H7       1.0000 0.17614  0.34594  0.58564  Biso   1.000  H
  H8       1.0000 0.82386  0.65406  0.41436  Biso   1.000  H
  H9       1.0000 0.67845  0.20173  0.30869  Biso   1.000  H
  H10      1.0000 0.32155  0.79827  0.69131  Biso   1.000  H
  H11      1.0000 0.17845  0.29827  0.69131  Biso   1.000  H
  H12      1.0000 0.82155  0.70173  0.30869  Biso   1.000  H
  H13      1.0000 0.32033  0.49393  0.34227  Biso   1.000  H
  H14      1.0000 0.67967  0.50607  0.65773  Biso   1.000  H
  H15      1.0000 0.82033  0.00607  0.65773  Biso   1.000  H
  H16      1.0000 0.17967  0.99393  0.34227  Biso   1.000  H
  H17      1.0000 0.31469  0.44526  0.44866  Biso   1.000  H
  H18      1.0000 0.68531  0.55474  0.55134  Biso   1.000  H
  H19      1.0000 0.81469  0.05474  0.55134  Biso   1.000  H
  H20      1.0000 0.18531  0.94526  0.44866  Biso   1.000  H
  H21      1.0000 0.68054  0.24672  0.22607  Biso   1.000  H
  H22      1.0000 0.31946  0.75328  0.77393  Biso   1.000  H
  H23      1.0000 0.18054  0.25328  0.77393  Biso   1.000  H
  H24      1.0000 0.81946  0.74672  0.22607  Biso   1.000  H
  H25      1.0000 0.67777  0.29326  0.12302  Biso   1.000  H
  H26      1.0000 0.32223  0.70674  0.87698  Biso   1.000  H
  H27      1.0000 0.17777  0.20674  0.87698  Biso   1.000  H
  H28      1.0000 0.82223  0.79326  0.12302  Biso   1.000  H
  H29      1.0000 0.32211  0.57454  0.15173  Biso   1.000  H
  H30      1.0000 0.67789  0.42546  0.84827  Biso   1.000  H
  H31      1.0000 0.82211  0.92546  0.84827  Biso   1.000  H
  H32      1.0000 0.17789  0.07454  0.15173  Biso   1.000  H
  H33      1.0000 0.32670  0.52812  0.25456  Biso   1.000  H
  H34      1.0000 0.67330  0.47188  0.74544  Biso   1.000  H
  H35      1.0000 0.82670  0.97188  0.74544  Biso   1.000  H
  H36      1.0000 0.17330  0.02812  0.25456  Biso   1.000  H
  H37      1.0000 0.67411  0.33376  0.03494  Biso   1.000  H
  H38      1.0000 0.32589  0.66624  0.96506  Biso   1.000  H
  H39      1.0000 0.17411  0.16624  0.96506  Biso   1.000  H
  H40      1.0000 0.82589  0.83376  0.03494  Biso   1.000  H
  H41      1.0000 0.32271  0.61415  0.06912  Biso   1.000  H
  H42      1.0000 0.67729  0.38585  0.93088  Biso   1.000  H
  H43      1.0000 0.82271  0.88585  0.93088  Biso   1.000  H
  H44      1.0000 0.17729  0.11415  0.06912  Biso   1.000  H
  C1       1.0000 0.99350  0.29670  0.43900  Biso   1.000  C
  C2       1.0000 0.00650  0.70330  0.56100  Biso   1.000  C
  C3       1.0000 0.49350  0.20330  0.56100  Biso   1.000  C
  C4       1.0000 0.50650  0.79670  0.43900  Biso   1.000  C
  C5       1.0000 0.81930  0.23000  0.39890  Biso   1.000  C
  C6       1.0000 0.18070  0.77000  0.60110  Biso   1.000  C
  C7       1.0000 0.31930  0.27000  0.60110  Biso   1.000  C
  C8       1.0000 0.68070  0.73000  0.39890  Biso   1.000  C
  C9       1.0000 0.82120  0.25670  0.33840  Biso   1.000  C
  C10      1.0000 0.17880  0.74330  0.66160  Biso   1.000  C
  C11      1.0000 0.32120  0.24330  0.66160  Biso   1.000  C
  C12      1.0000 0.67880  0.75670  0.33840  Biso   1.000  C
  C13      1.0000 0.00070  0.35210  0.31630  Biso   1.000  C
  C14      1.0000 0.99930  0.64790  0.68370  Biso   1.000  C
  C15      1.0000 0.50070  0.14790  0.68370  Biso   1.000  C
  C16      1.0000 0.49930  0.85210  0.31630  Biso   1.000  C
  C17      1.0000 0.17610  0.41830  0.35720  Biso   1.000  C
  C18      1.0000 0.82390  0.58170  0.64280  Biso   1.000  C
  C19      1.0000 0.67610  0.08170  0.64280  Biso   1.000  C
  C20      1.0000 0.32390  0.91830  0.35720  Biso   1.000  C
  C21      1.0000 0.17390  0.39060  0.41800  Biso   1.000  C
  C22      1.0000 0.82610  0.60940  0.58200  Biso   1.000  C
  C23      1.0000 0.67390  0.10940  0.58200  Biso   1.000  C
  C24      1.0000 0.32610  0.89060  0.41800  Biso   1.000  C
  C25      1.0000 0.00420  0.38300  0.25150  Biso   1.000  C
  C26      1.0000 0.99580  0.61700  0.74850  Biso   1.000  C
  C27      1.0000 0.50420  0.11700  0.74850  Biso   1.000  C
  C28      1.0000 0.49580  0.88300  0.25150  Biso   1.000  C
  C29      1.0000 0.82740  0.32060  0.21150  Biso   1.000  C
  C30      1.0000 0.17260  0.67940  0.78850  Biso   1.000  C
  C31      1.0000 0.32740  0.17940  0.78850  Biso   1.000  C
  C32      1.0000 0.67260  0.82060  0.21150  Biso   1.000  C
  C33      1.0000 0.82630  0.34750  0.15110  Biso   1.000  C
  C34      1.0000 0.17370  0.65250  0.84890  Biso   1.000  C
  C35      1.0000 0.32630  0.15250  0.84890  Biso   1.000  C
  C36      1.0000 0.67370  0.84750  0.15110  Biso   1.000  C
  C37      1.0000 0.99800  0.43930  0.12630  Biso   1.000  C
  C38      1.0000 0.00200  0.56070  0.87370  Biso   1.000  C
  C39      1.0000 0.49800  0.06070  0.87370  Biso   1.000  C
  C40      1.0000 0.50200  0.93930  0.12630  Biso   1.000  C
  C41      1.0000 0.17510  0.50070  0.16630  Biso   1.000  C
  C42      1.0000 0.82490  0.49930  0.83370  Biso   1.000  C
  C43      1.0000 0.67510  0.99930  0.83370  Biso   1.000  C
  C44      1.0000 0.32490  0.00070  0.16630  Biso   1.000  C
  C45      1.0000 0.17750  0.47430  0.22670  Biso   1.000  C
  C46      1.0000 0.82250  0.52570  0.77330  Biso   1.000  C
  C47      1.0000 0.67750  0.02570  0.77330  Biso   1.000  C
  C48      1.0000 0.32250  0.97430  0.22670  Biso   1.000  C
  C49      1.0000 0.99630  0.46980  0.06140  Biso   1.000  C
  C50      1.0000 0.00370  0.53020  0.93860  Biso   1.000  C
  C51      1.0000 0.49630  0.03020  0.93860  Biso   1.000  C
  C52      1.0000 0.50370  0.96980  0.06140  Biso   1.000  C
  C53      1.0000 0.82110  0.40790  0.02040  Biso   1.000  C
  C54      1.0000 0.17890  0.59210  0.97960  Biso   1.000  C
  C55      1.0000 0.32110  0.09210  0.97960  Biso   1.000  C
  C56      1.0000 0.67890  0.90790  0.02040  Biso   1.000  C
  C57      1.0000 0.17730  0.56220  0.03970  Biso   1.000  C
  C58      1.0000 0.82270  0.43780  0.96030  Biso   1.000  C
  C59      1.0000 0.67730  0.93780  0.96030  Biso   1.000  C
  C60      1.0000 0.32270  0.06220  0.03970  Biso   1.000  C
