data_image0
_cell_length_a       3.832
_cell_length_b       10.376
_cell_length_c       31.914
_cell_angle_alpha    90.24
_cell_angle_beta     90
_cell_angle_gamma    90

_symmetry_space_group_name_H-M    "P 1"
_symmetry_int_tables_number       1

loop_
  _symmetry_equiv_pos_as_xyz
  'x, y, z'

loop_
  _atom_site_label
  _atom_site_occupancy
  _atom_site_fract_x
  _atom_site_fract_y
  _atom_site_fract_z
  _atom_site_thermal_displace_type
  _atom_site_B_iso_or_equiv
  _atom_site_type_symbol
  H1       1.0000 0.61270  0.23215  0.93509  Biso   1.000  H
  H2       1.0000 0.38730  0.76785  0.06491  Biso   1.000  H
  H3       1.0000 0.11270  0.76785  0.56491  Biso   1.000  H
  H4       1.0000 0.88730  0.23215  0.43509  Biso   1.000  H
  H5       1.0000 0.72284  0.31984  0.98581  Biso   1.000  H
  H6       1.0000 0.27716  0.68016  0.01419  Biso   1.000  H
  H7       1.0000 0.22284  0.68016  0.51419  Biso   1.000  H
  H8       1.0000 0.77716  0.31984  0.48581  Biso   1.000  H
  H9       1.0000 0.72880  0.51746  0.02755  Biso   1.000  H
  H10      1.0000 0.27120  0.48254  0.97245  Biso   1.000  H
  H11      1.0000 0.22880  0.48254  0.47245  Biso   1.000  H
  H12      1.0000 0.77120  0.51746  0.52755  Biso   1.000  H
  H13      1.0000 0.87700  0.63123  0.09305  Biso   1.000  H
  H14      1.0000 0.12300  0.36877  0.90695  Biso   1.000  H
  H15      1.0000 0.37700  0.36877  0.40695  Biso   1.000  H
  H16      1.0000 0.62300  0.63123  0.59305  Biso   1.000  H
  H17      1.0000 0.11809  0.62873  0.16535  Biso   1.000  H
  H18      1.0000 0.88191  0.37127  0.83465  Biso   1.000  H
  H19      1.0000 0.61809  0.37127  0.33465  Biso   1.000  H
  H20      1.0000 0.38191  0.62873  0.66535  Biso   1.000  H
  H21      1.0000 0.39961  0.51143  0.22315  Biso   1.000  H
  H22      1.0000 0.60039  0.48857  0.77685  Biso   1.000  H
  H23      1.0000 0.89961  0.48857  0.27685  Biso   1.000  H
  H24      1.0000 0.10039  0.51143  0.72315  Biso   1.000  H
  H25      1.0000 0.63122  0.30701  0.25267  Biso   1.000  H
  H26      1.0000 0.36878  0.69299  0.74733  Biso   1.000  H
  H27      1.0000 0.13122  0.69299  0.24733  Biso   1.000  H
  H28      1.0000 0.86878  0.30701  0.75267  Biso   1.000  H
  H29      1.0000 0.76003  0.07651  0.24509  Biso   1.000  H
  H30      1.0000 0.23997  0.92349  0.75491  Biso   1.000  H
  H31      1.0000 0.26003  0.92349  0.25491  Biso   1.000  H
  H32      1.0000 0.73997  0.07651  0.74509  Biso   1.000  H
  H33      1.0000 0.24970  0.12467  0.79759  Biso   1.000  H
  H34      1.0000 0.75030  0.87533  0.20241  Biso   1.000  H
  H35      1.0000 0.74970  0.87533  0.70241  Biso   1.000  H
  H36      1.0000 0.25030  0.12467  0.29759  Biso   1.000  H
  H37      1.0000 0.38813  0.23682  0.86354  Biso   1.000  H
  H38      1.0000 0.61187  0.76318  0.13646  Biso   1.000  H
  H39      1.0000 0.88813  0.76318  0.63646  Biso   1.000  H
  H40      1.0000 0.11187  0.23682  0.36354  Biso   1.000  H
  C1       1.0000 0.68000  0.13050  0.93250  Biso   1.000  C
  C2       1.0000 0.32000  0.86950  0.06750  Biso   1.000  C
  C3       1.0000 0.18000  0.86950  0.56750  Biso   1.000  C
  C4       1.0000 0.82000  0.13050  0.43250  Biso   1.000  C
  C5       1.0000 0.83540  0.06800  0.96560  Biso   1.000  C
  C6       1.0000 0.16460  0.93200  0.03440  Biso   1.000  C
  C7       1.0000 0.33540  0.93200  0.53440  Biso   1.000  C
  C8       1.0000 0.66460  0.06800  0.46560  Biso   1.000  C
  C9       1.0000 0.92070  0.13590  0.00510  Biso   1.000  C
  C10      1.0000 0.07930  0.86410  0.99490  Biso   1.000  C
  C11      1.0000 0.42070  0.86410  0.49490  Biso   1.000  C
  C12      1.0000 0.57930  0.13590  0.50510  Biso   1.000  C
  C13      1.0000 0.84850  0.26520  0.01060  Biso   1.000  C
  C14      1.0000 0.15150  0.73480  0.98940  Biso   1.000  C
  C15      1.0000 0.34850  0.73480  0.48940  Biso   1.000  C
  C16      1.0000 0.65150  0.26520  0.51060  Biso   1.000  C
  C17      1.0000 0.85360  0.46610  0.05320  Biso   1.000  C
  C18      1.0000 0.14640  0.53390  0.94680  Biso   1.000  C
  C19      1.0000 0.35360  0.53390  0.44680  Biso   1.000  C
  C20      1.0000 0.64640  0.46610  0.55320  Biso   1.000  C
  C21      1.0000 0.93420  0.52880  0.08970  Biso   1.000  C
  C22      1.0000 0.06580  0.47120  0.91030  Biso   1.000  C
  C23      1.0000 0.43420  0.47120  0.41030  Biso   1.000  C
  C24      1.0000 0.56580  0.52880  0.58970  Biso   1.000  C
  C25      1.0000 0.17720  0.52630  0.16210  Biso   1.000  C
  C26      1.0000 0.82280  0.47370  0.83790  Biso   1.000  C
  C27      1.0000 0.67720  0.47370  0.33790  Biso   1.000  C
  C28      1.0000 0.32280  0.52630  0.66210  Biso   1.000  C
  C29      1.0000 0.33090  0.46130  0.19420  Biso   1.000  C
  C30      1.0000 0.66910  0.53870  0.80580  Biso   1.000  C
  C31      1.0000 0.83090  0.53870  0.30580  Biso   1.000  C
  C32      1.0000 0.16910  0.46130  0.69420  Biso   1.000  C
  C33      1.0000 0.56580  0.25700  0.22360  Biso   1.000  C
  C34      1.0000 0.43420  0.74300  0.77640  Biso   1.000  C
  C35      1.0000 0.06580  0.74300  0.27640  Biso   1.000  C
  C36      1.0000 0.93420  0.25700  0.72360  Biso   1.000  C
  C37      1.0000 0.63730  0.12870  0.21950  Biso   1.000  C
  C38      1.0000 0.36270  0.87130  0.78050  Biso   1.000  C
  C39      1.0000 0.13730  0.87130  0.28050  Biso   1.000  C
  C40      1.0000 0.86270  0.12870  0.71950  Biso   1.000  C
  C41      1.0000 0.37020  0.07250  0.82340  Biso   1.000  C
  C42      1.0000 0.62980  0.92750  0.17660  Biso   1.000  C
  C43      1.0000 0.87020  0.92750  0.67660  Biso   1.000  C
  C44      1.0000 0.12980  0.07250  0.32340  Biso   1.000  C
  C45      1.0000 0.44560  0.13450  0.86000  Biso   1.000  C
  C46      1.0000 0.55440  0.86550  0.14000  Biso   1.000  C
  C47      1.0000 0.94560  0.86550  0.64000  Biso   1.000  C
  C48      1.0000 0.05440  0.13450  0.36000  Biso   1.000  C
  C49      1.0000 0.60020  0.06840  0.89430  Biso   1.000  C
  C50      1.0000 0.39980  0.93160  0.10570  Biso   1.000  C
  C51      1.0000 0.10020  0.93160  0.60570  Biso   1.000  C
  C52      1.0000 0.89980  0.06840  0.39430  Biso   1.000  C
  C53      1.0000 0.91760  0.93390  0.96150  Biso   1.000  C
  C54      1.0000 0.08240  0.06610  0.03850  Biso   1.000  C
  C55      1.0000 0.41760  0.06610  0.53850  Biso   1.000  C
  C56      1.0000 0.58240  0.93390  0.46150  Biso   1.000  C
  C57      1.0000 0.92810  0.33250  0.04810  Biso   1.000  C
  C58      1.0000 0.07190  0.66750  0.95190  Biso   1.000  C
  C59      1.0000 0.42810  0.66750  0.45190  Biso   1.000  C
  C60      1.0000 0.57190  0.33250  0.54810  Biso   1.000  C
  C61      1.0000 0.09100  0.46360  0.12370  Biso   1.000  C
  C62      1.0000 0.90900  0.53640  0.87630  Biso   1.000  C
  C63      1.0000 0.59100  0.53640  0.37630  Biso   1.000  C
  C64      1.0000 0.40900  0.46360  0.62370  Biso   1.000  C
  C65      1.0000 0.40860  0.32800  0.19090  Biso   1.000  C
  C66      1.0000 0.59140  0.67200  0.80910  Biso   1.000  C
  C67      1.0000 0.90860  0.67200  0.30910  Biso   1.000  C
  C68      1.0000 0.09140  0.32800  0.69090  Biso   1.000  C
  C69      1.0000 0.44200  0.93890  0.81810  Biso   1.000  C
  C70      1.0000 0.55800  0.06110  0.18190  Biso   1.000  C
  C71      1.0000 0.94200  0.06110  0.68190  Biso   1.000  C
  C72      1.0000 0.05800  0.93890  0.31810  Biso   1.000  C
  C73      1.0000 0.83730  0.86870  0.92350  Biso   1.000  C
  C74      1.0000 0.16270  0.13130  0.07650  Biso   1.000  C
  C75      1.0000 0.33730  0.13130  0.57650  Biso   1.000  C
  C76      1.0000 0.66270  0.86870  0.42350  Biso   1.000  C
  C77      1.0000 0.08610  0.26480  0.08130  Biso   1.000  C
  C78      1.0000 0.91390  0.73520  0.91870  Biso   1.000  C
  C79      1.0000 0.58610  0.73520  0.41870  Biso   1.000  C
  C80      1.0000 0.41390  0.26480  0.58130  Biso   1.000  C
  C81      1.0000 0.16780  0.33070  0.11940  Biso   1.000  C
  C82      1.0000 0.83220  0.66930  0.88060  Biso   1.000  C
  C83      1.0000 0.66780  0.66930  0.38060  Biso   1.000  C
  C84      1.0000 0.33220  0.33070  0.61940  Biso   1.000  C
  C85      1.0000 0.32630  0.26280  0.15290  Biso   1.000  C
  C86      1.0000 0.67370  0.73720  0.84710  Biso   1.000  C
  C87      1.0000 0.82630  0.73720  0.34710  Biso   1.000  C
  C88      1.0000 0.17370  0.26280  0.65290  Biso   1.000  C
  C89      1.0000 0.59780  0.87100  0.85150  Biso   1.000  C
  C90      1.0000 0.40220  0.12900  0.14850  Biso   1.000  C
  C91      1.0000 0.09780  0.12900  0.64850  Biso   1.000  C
  C92      1.0000 0.90220  0.87100  0.35150  Biso   1.000  C
  C93      1.0000 0.67860  0.93590  0.88990  Biso   1.000  C
  C94      1.0000 0.32140  0.06410  0.11010  Biso   1.000  C
  C95      1.0000 0.17860  0.06410  0.61010  Biso   1.000  C
  C96      1.0000 0.82140  0.93590  0.38990  Biso   1.000  C
