data_image0
_cell_length_a       8.263
_cell_length_b       11.466
_cell_length_c       15.238
_cell_angle_alpha    90
_cell_angle_beta     90
_cell_angle_gamma    90

_symmetry_space_group_name_H-M    "P 1"
_symmetry_int_tables_number       1

loop_
  _symmetry_equiv_pos_as_xyz
  'x, y, z'

loop_
  _atom_site_label
  _atom_site_occupancy
  _atom_site_fract_x
  _atom_site_fract_y
  _atom_site_fract_z
  _atom_site_thermal_displace_type
  _atom_site_B_iso_or_equiv
  _atom_site_type_symbol
  H1       1.0000 0.96718  0.82921  0.42559  Biso   1.000  H
  H2       1.0000 0.03282  0.17079  0.57441  Biso   1.000  H
  H3       1.0000 0.03282  0.67079  0.92559  Biso   1.000  H
  H4       1.0000 0.96718  0.32921  0.07441  Biso   1.000  H
  H5       1.0000 0.46718  0.17079  0.07441  Biso   1.000  H
  H6       1.0000 0.53282  0.82921  0.92559  Biso   1.000  H
  H7       1.0000 0.53282  0.32921  0.57441  Biso   1.000  H
  H8       1.0000 0.46718  0.67079  0.42559  Biso   1.000  H
  H9       1.0000 0.84544  0.70932  0.30834  Biso   1.000  H
  H10      1.0000 0.15456  0.29068  0.69166  Biso   1.000  H
  H11      1.0000 0.15456  0.79068  0.80834  Biso   1.000  H
  H12      1.0000 0.84544  0.20932  0.19166  Biso   1.000  H
  H13      1.0000 0.34544  0.29068  0.19166  Biso   1.000  H
  H14      1.0000 0.65456  0.70932  0.80834  Biso   1.000  H
  H15      1.0000 0.65456  0.20932  0.69166  Biso   1.000  H
  H16      1.0000 0.34544  0.79068  0.30834  Biso   1.000  H
  H17      1.0000 0.10880  0.01434  0.38744  Biso   1.000  H
  H18      1.0000 0.89120  0.98566  0.61256  Biso   1.000  H
  H19      1.0000 0.89120  0.48566  0.88744  Biso   1.000  H
  H20      1.0000 0.10880  0.51434  0.11256  Biso   1.000  H
  H21      1.0000 0.60880  0.98566  0.11256  Biso   1.000  H
  H22      1.0000 0.39120  0.01434  0.88744  Biso   1.000  H
  H23      1.0000 0.39120  0.51434  0.61256  Biso   1.000  H
  H24      1.0000 0.60880  0.48566  0.38744  Biso   1.000  H
  H25      1.0000 0.12316  0.07870  0.23550  Biso   1.000  H
  H26      1.0000 0.87684  0.92130  0.76450  Biso   1.000  H
  H27      1.0000 0.87684  0.42130  0.73550  Biso   1.000  H
  H28      1.0000 0.12316  0.57870  0.26450  Biso   1.000  H
  H29      1.0000 0.62316  0.92130  0.26450  Biso   1.000  H
  H30      1.0000 0.37684  0.07870  0.73550  Biso   1.000  H
  H31      1.0000 0.37684  0.57870  0.76450  Biso   1.000  H
  H32      1.0000 0.62316  0.42130  0.23550  Biso   1.000  H
  H33      1.0000 0.13905  0.12375  0.10917  Biso   1.000  H
  H34      1.0000 0.86095  0.87625  0.89083  Biso   1.000  H
  H35      1.0000 0.86095  0.37625  0.60917  Biso   1.000  H
  H36      1.0000 0.13905  0.62375  0.39083  Biso   1.000  H
  H37      1.0000 0.63905  0.87625  0.39083  Biso   1.000  H
  H38      1.0000 0.36095  0.12375  0.60917  Biso   1.000  H
  H39      1.0000 0.36095  0.62375  0.89083  Biso   1.000  H
  H40      1.0000 0.63905  0.37625  0.10917  Biso   1.000  H
  H41      1.0000 0.78111  0.73941  0.00201  Biso   1.000  H
  H42      1.0000 0.21889  0.26059  0.99799  Biso   1.000  H
  H43      1.0000 0.21889  0.76059  0.50201  Biso   1.000  H
  H44      1.0000 0.78111  0.23941  0.49799  Biso   1.000  H
  H45      1.0000 0.28111  0.26059  0.49799  Biso   1.000  H
  H46      1.0000 0.71889  0.73941  0.50201  Biso   1.000  H
  H47      1.0000 0.71889  0.23941  0.99799  Biso   1.000  H
  H48      1.0000 0.28111  0.76059  0.00201  Biso   1.000  H
  H49      1.0000 0.77943  0.67695  0.15524  Biso   1.000  H
  H50      1.0000 0.22057  0.32305  0.84476  Biso   1.000  H
  H51      1.0000 0.22057  0.82305  0.65524  Biso   1.000  H
  H52      1.0000 0.77943  0.17695  0.34476  Biso   1.000  H
  H53      1.0000 0.27943  0.32305  0.34476  Biso   1.000  H
  H54      1.0000 0.72057  0.67695  0.65524  Biso   1.000  H
  H55      1.0000 0.72057  0.17695  0.84476  Biso   1.000  H
  H56      1.0000 0.27943  0.82305  0.15524  Biso   1.000  H
  C1       1.0000 0.97500  0.85670  0.35730  Biso   1.000  C
  C2       1.0000 0.02500  0.14330  0.64270  Biso   1.000  C
  C3       1.0000 0.02500  0.64330  0.85730  Biso   1.000  C
  C4       1.0000 0.97500  0.35670  0.14270  Biso   1.000  C
  C5       1.0000 0.47500  0.14330  0.14270  Biso   1.000  C
  C6       1.0000 0.52500  0.85670  0.85730  Biso   1.000  C
  C7       1.0000 0.52500  0.35670  0.64270  Biso   1.000  C
  C8       1.0000 0.47500  0.64330  0.35730  Biso   1.000  C
  C9       1.0000 0.91410  0.82590  0.20400  Biso   1.000  C
  C10      1.0000 0.08590  0.17410  0.79600  Biso   1.000  C
  C11      1.0000 0.08590  0.67410  0.70400  Biso   1.000  C
  C12      1.0000 0.91410  0.32590  0.29600  Biso   1.000  C
  C13      1.0000 0.41410  0.17410  0.29600  Biso   1.000  C
  C14      1.0000 0.58590  0.82590  0.70400  Biso   1.000  C
  C15      1.0000 0.58590  0.32590  0.79600  Biso   1.000  C
  C16      1.0000 0.41410  0.67410  0.20400  Biso   1.000  C
  C17      1.0000 0.90800  0.79060  0.29270  Biso   1.000  C
  C18      1.0000 0.09200  0.20940  0.70730  Biso   1.000  C
  C19      1.0000 0.09200  0.70940  0.79270  Biso   1.000  C
  C20      1.0000 0.90800  0.29060  0.20730  Biso   1.000  C
  C21      1.0000 0.40800  0.20940  0.20730  Biso   1.000  C
  C22      1.0000 0.59200  0.79060  0.79270  Biso   1.000  C
  C23      1.0000 0.59200  0.29060  0.70730  Biso   1.000  C
  C24      1.0000 0.40800  0.70940  0.29270  Biso   1.000  C
  C25      1.0000 0.05460  0.96100  0.33610  Biso   1.000  C
  C26      1.0000 0.94540  0.03900  0.66390  Biso   1.000  C
  C27      1.0000 0.94540  0.53900  0.83610  Biso   1.000  C
  C28      1.0000 0.05460  0.46100  0.16390  Biso   1.000  C
  C29      1.0000 0.55460  0.03900  0.16390  Biso   1.000  C
  C30      1.0000 0.44540  0.96100  0.83610  Biso   1.000  C
  C31      1.0000 0.44540  0.46100  0.66390  Biso   1.000  C
  C32      1.0000 0.55460  0.53900  0.33610  Biso   1.000  C
  C33      1.0000 0.06170  0.99720  0.25030  Biso   1.000  C
  C34      1.0000 0.93830  0.00280  0.74970  Biso   1.000  C
  C35      1.0000 0.93830  0.50280  0.75030  Biso   1.000  C
  C36      1.0000 0.06170  0.49720  0.24970  Biso   1.000  C
  C37      1.0000 0.56170  0.00280  0.24970  Biso   1.000  C
  C38      1.0000 0.43830  0.99720  0.75030  Biso   1.000  C
  C39      1.0000 0.43830  0.49720  0.74970  Biso   1.000  C
  C40      1.0000 0.56170  0.50280  0.25030  Biso   1.000  C
  C41      1.0000 0.99210  0.93160  0.18210  Biso   1.000  C
  C42      1.0000 0.00790  0.06840  0.81790  Biso   1.000  C
  C43      1.0000 0.00790  0.56840  0.68210  Biso   1.000  C
  C44      1.0000 0.99210  0.43160  0.31790  Biso   1.000  C
  C45      1.0000 0.49210  0.06840  0.31790  Biso   1.000  C
  C46      1.0000 0.50790  0.93160  0.68210  Biso   1.000  C
  C47      1.0000 0.50790  0.43160  0.81790  Biso   1.000  C
  C48      1.0000 0.49210  0.56840  0.18210  Biso   1.000  C
  C49      1.0000 0.99800  0.96750  0.09060  Biso   1.000  C
  C50      1.0000 0.00200  0.03250  0.90940  Biso   1.000  C
  C51      1.0000 0.00200  0.53250  0.59060  Biso   1.000  C
  C52      1.0000 0.99800  0.46750  0.40940  Biso   1.000  C
  C53      1.0000 0.49800  0.03250  0.40940  Biso   1.000  C
  C54      1.0000 0.50200  0.96750  0.59060  Biso   1.000  C
  C55      1.0000 0.50200  0.46750  0.90940  Biso   1.000  C
  C56      1.0000 0.49800  0.53250  0.09060  Biso   1.000  C
  C57      1.0000 0.07680  0.06840  0.06210  Biso   1.000  C
  C58      1.0000 0.92320  0.93160  0.93790  Biso   1.000  C
  C59      1.0000 0.92320  0.43160  0.56210  Biso   1.000  C
  C60      1.0000 0.07680  0.56840  0.43790  Biso   1.000  C
  C61      1.0000 0.57680  0.93160  0.43790  Biso   1.000  C
  C62      1.0000 0.42320  0.06840  0.56210  Biso   1.000  C
  C63      1.0000 0.42320  0.56840  0.93790  Biso   1.000  C
  C64      1.0000 0.57680  0.43160  0.06210  Biso   1.000  C
  C65      1.0000 0.92000  0.89790  0.02560  Biso   1.000  C
  C66      1.0000 0.08000  0.10210  0.97440  Biso   1.000  C
  C67      1.0000 0.08000  0.60210  0.52560  Biso   1.000  C
  C68      1.0000 0.92000  0.39790  0.47440  Biso   1.000  C
  C69      1.0000 0.42000  0.10210  0.47440  Biso   1.000  C
  C70      1.0000 0.58000  0.89790  0.52560  Biso   1.000  C
  C71      1.0000 0.58000  0.39790  0.97440  Biso   1.000  C
  C72      1.0000 0.42000  0.60210  0.02560  Biso   1.000  C
  C73      1.0000 0.84070  0.79200  0.05220  Biso   1.000  C
  C74      1.0000 0.15930  0.20800  0.94780  Biso   1.000  C
  C75      1.0000 0.15930  0.70800  0.55220  Biso   1.000  C
  C76      1.0000 0.84070  0.29200  0.44780  Biso   1.000  C
  C77      1.0000 0.34070  0.20800  0.44780  Biso   1.000  C
  C78      1.0000 0.65930  0.79200  0.55220  Biso   1.000  C
  C79      1.0000 0.65930  0.29200  0.94780  Biso   1.000  C
  C80      1.0000 0.34070  0.70800  0.05220  Biso   1.000  C
  C81      1.0000 0.83860  0.75800  0.13620  Biso   1.000  C
  C82      1.0000 0.16140  0.24200  0.86380  Biso   1.000  C
  C83      1.0000 0.16140  0.74200  0.63620  Biso   1.000  C
  C84      1.0000 0.83860  0.25800  0.36380  Biso   1.000  C
  C85      1.0000 0.33860  0.24200  0.36380  Biso   1.000  C
  C86      1.0000 0.66140  0.75800  0.63620  Biso   1.000  C
  C87      1.0000 0.66140  0.25800  0.86380  Biso   1.000  C
  C88      1.0000 0.33860  0.74200  0.13620  Biso   1.000  C
