data_image0
_cell_length_a       5.23
_cell_length_b       10.588
_cell_length_c       16.51
_cell_angle_alpha    107.231
_cell_angle_beta     90
_cell_angle_gamma    104.299

_symmetry_space_group_name_H-M    "P 1"
_symmetry_int_tables_number       1

loop_
  _symmetry_equiv_pos_as_xyz
  'x, y, z'

loop_
  _atom_site_label
  _atom_site_occupancy
  _atom_site_fract_x
  _atom_site_fract_y
  _atom_site_fract_z
  _atom_site_thermal_displace_type
  _atom_site_B_iso_or_equiv
  _atom_site_type_symbol
  C1       1.0000 0.70631  0.53168  0.94034  Biso   1.000  C
  C2       1.0000 0.29369  0.46832  0.05966  Biso   1.000  C
  C3       1.0000 0.17463  0.46832  0.55966  Biso   1.000  C
  C4       1.0000 0.82537  0.53168  0.44034  Biso   1.000  C
  C5       1.0000 0.56516  0.63296  0.98689  Biso   1.000  C
  C6       1.0000 0.43484  0.36704  0.01311  Biso   1.000  C
  C7       1.0000 0.93220  0.36704  0.51311  Biso   1.000  C
  C8       1.0000 0.06780  0.63296  0.48689  Biso   1.000  C
  C9       1.0000 0.63742  0.39864  0.95460  Biso   1.000  C
  C10      1.0000 0.36258  0.60136  0.04540  Biso   1.000  C
  C11      1.0000 0.23878  0.60136  0.54540  Biso   1.000  C
  C12      1.0000 0.76122  0.39864  0.45460  Biso   1.000  C
  C13      1.0000 0.76380  0.30168  0.90845  Biso   1.000  C
  C14      1.0000 0.23620  0.69832  0.09155  Biso   1.000  C
  C15      1.0000 0.46212  0.69832  0.59155  Biso   1.000  C
  C16      1.0000 0.53788  0.30168  0.40845  Biso   1.000  C
  C17      1.0000 0.94949  0.33264  0.85308  Biso   1.000  C
  C18      1.0000 0.05051  0.66736  0.14692  Biso   1.000  C
  C19      1.0000 0.61685  0.66736  0.64692  Biso   1.000  C
  C20      1.0000 0.38315  0.33264  0.35308  Biso   1.000  C
  C21      1.0000 0.01855  0.45930  0.83921  Biso   1.000  C
  C22      1.0000 0.98145  0.54070  0.16079  Biso   1.000  C
  C23      1.0000 0.55925  0.54070  0.66079  Biso   1.000  C
  C24      1.0000 0.44075  0.45930  0.33921  Biso   1.000  C
  C25      1.0000 0.89280  0.56090  0.88455  Biso   1.000  C
  C26      1.0000 0.10720  0.43910  0.11545  Biso   1.000  C
  C27      1.0000 0.33190  0.43910  0.61545  Biso   1.000  C
  C28      1.0000 0.66810  0.56090  0.38455  Biso   1.000  C
  C29      1.0000 0.96067  0.69560  0.87207  Biso   1.000  C
  C30      1.0000 0.03933  0.30440  0.12793  Biso   1.000  C
  C31      1.0000 0.26507  0.30440  0.62793  Biso   1.000  C
  C32      1.0000 0.73493  0.69560  0.37207  Biso   1.000  C
  C33      1.0000 0.15524  0.73040  0.81831  Biso   1.000  C
  C34      1.0000 0.84476  0.26960  0.18169  Biso   1.000  C
  C35      1.0000 0.42484  0.26960  0.68169  Biso   1.000  C
  C36      1.0000 0.57516  0.73040  0.31831  Biso   1.000  C
  C37      1.0000 0.22075  0.86218  0.80820  Biso   1.000  C
  C38      1.0000 0.77925  0.13782  0.19180  Biso   1.000  C
  C39      1.0000 0.35857  0.13782  0.69180  Biso   1.000  C
  C40      1.0000 0.64143  0.86218  0.30820  Biso   1.000  C
  C41      1.0000 0.07624  0.95394  0.85001  Biso   1.000  C
  C42      1.0000 0.92376  0.04606  0.14999  Biso   1.000  C
  C43      1.0000 0.12230  0.04606  0.64999  Biso   1.000  C
  C44      1.0000 0.87770  0.95394  0.35001  Biso   1.000  C
  C45      1.0000 0.87967  0.92274  0.90240  Biso   1.000  C
  C46      1.0000 0.12033  0.07726  0.09760  Biso   1.000  C
  C47      1.0000 0.95693  0.07726  0.59760  Biso   1.000  C
  C48      1.0000 0.04307  0.92274  0.40240  Biso   1.000  C
  C49      1.0000 0.82966  0.79168  0.91335  Biso   1.000  C
  C50      1.0000 0.17034  0.20832  0.08665  Biso   1.000  C
  C51      1.0000 0.03798  0.20832  0.58665  Biso   1.000  C
  C52      1.0000 0.96202  0.79168  0.41335  Biso   1.000  C
  C53      1.0000 0.64229  0.75920  0.97022  Biso   1.000  C
  C54      1.0000 0.35771  0.24080  0.02978  Biso   1.000  C
  C55      1.0000 0.88309  0.24080  0.52978  Biso   1.000  C
  C56      1.0000 0.11691  0.75920  0.47022  Biso   1.000  C
  H1       1.0000 0.71938  0.20012  0.91616  Biso   1.000  H
  H2       1.0000 0.28062  0.79988  0.08384  Biso   1.000  H
  H3       1.0000 0.51926  0.79988  0.58384  Biso   1.000  H
  H4       1.0000 0.48074  0.20012  0.41616  Biso   1.000  H
  H5       1.0000 0.04613  0.25480  0.81848  Biso   1.000  H
  H6       1.0000 0.95387  0.74520  0.18152  Biso   1.000  H
  H7       1.0000 0.79133  0.74520  0.68152  Biso   1.000  H
  H8       1.0000 0.20867  0.25480  0.31848  Biso   1.000  H
  H9       1.0000 0.16686  0.47896  0.79551  Biso   1.000  H
  H10      1.0000 0.83314  0.52104  0.20449  Biso   1.000  H
  H11      1.0000 0.68790  0.52104  0.70449  Biso   1.000  H
  H12      1.0000 0.31210  0.47896  0.29551  Biso   1.000  H
  H13      1.0000 0.26527  0.65863  0.78497  Biso   1.000  H
  H14      1.0000 0.73473  0.34137  0.21503  Biso   1.000  H
  H15      1.0000 0.60665  0.34137  0.71503  Biso   1.000  H
  H16      1.0000 0.39335  0.65863  0.28497  Biso   1.000  H
  H17      1.0000 0.37672  0.88944  0.76815  Biso   1.000  H
  H18      1.0000 0.62328  0.11056  0.23185  Biso   1.000  H
  H19      1.0000 0.48728  0.11056  0.73185  Biso   1.000  H
  H20      1.0000 0.51272  0.88944  0.26815  Biso   1.000  H
  H21      1.0000 0.12317  0.05558  0.84181  Biso   1.000  H
  H22      1.0000 0.87683  0.94442  0.15819  Biso   1.000  H
  H23      1.0000 0.06760  0.94442  0.65819  Biso   1.000  H
  H24      1.0000 0.93240  0.05558  0.34181  Biso   1.000  H
  H25      1.0000 0.77080  0.99528  0.93548  Biso   1.000  H
  H26      1.0000 0.22920  0.00472  0.06452  Biso   1.000  H
  H27      1.0000 0.77552  0.00472  0.56452  Biso   1.000  H
  H28      1.0000 0.22448  0.99528  0.43548  Biso   1.000  H
  H29      1.0000 0.54547  0.83903  0.00135  Biso   1.000  H
  H30      1.0000 0.45453  0.16097  0.99865  Biso   1.000  H
  H31      1.0000 0.70644  0.16097  0.49865  Biso   1.000  H
  H32      1.0000 0.29356  0.83903  0.50135  Biso   1.000  H
