data_image0
_cell_length_a       9.013
_cell_length_b       9.95
_cell_length_c       23.577
_cell_angle_alpha    90
_cell_angle_beta     90
_cell_angle_gamma    90

_symmetry_space_group_name_H-M    "P 1"
_symmetry_int_tables_number       1

loop_
  _symmetry_equiv_pos_as_xyz
  'x, y, z'

loop_
  _atom_site_label
  _atom_site_occupancy
  _atom_site_fract_x
  _atom_site_fract_y
  _atom_site_fract_z
  _atom_site_thermal_displace_type
  _atom_site_B_iso_or_equiv
  _atom_site_type_symbol
  H1       1.0000 0.81935  0.72219  0.55050  Biso   1.000  H
  H2       1.0000 0.18065  0.27781  0.44950  Biso   1.000  H
  H3       1.0000 0.68065  0.22219  0.94950  Biso   1.000  H
  H4       1.0000 0.31935  0.77781  0.05050  Biso   1.000  H
  H5       1.0000 0.81935  0.77781  0.44950  Biso   1.000  H
  H6       1.0000 0.18065  0.22219  0.55050  Biso   1.000  H
  H7       1.0000 0.68065  0.27781  0.05050  Biso   1.000  H
  H8       1.0000 0.31935  0.72219  0.94950  Biso   1.000  H
  H9       1.0000 0.74915  0.83790  0.63736  Biso   1.000  H
  H10      1.0000 0.25085  0.16210  0.36264  Biso   1.000  H
  H11      1.0000 0.75085  0.33790  0.86264  Biso   1.000  H
  H12      1.0000 0.24915  0.66210  0.13736  Biso   1.000  H
  H13      1.0000 0.74915  0.66210  0.36264  Biso   1.000  H
  H14      1.0000 0.25085  0.33790  0.63736  Biso   1.000  H
  H15      1.0000 0.75085  0.16210  0.13736  Biso   1.000  H
  H16      1.0000 0.24915  0.83790  0.86264  Biso   1.000  H
  H17      1.0000 0.78969  0.76922  0.73737  Biso   1.000  H
  H18      1.0000 0.21031  0.23078  0.26263  Biso   1.000  H
  H19      1.0000 0.71031  0.26922  0.76263  Biso   1.000  H
  H20      1.0000 0.28969  0.73078  0.23737  Biso   1.000  H
  H21      1.0000 0.78969  0.73078  0.26263  Biso   1.000  H
  H22      1.0000 0.21031  0.26922  0.73737  Biso   1.000  H
  H23      1.0000 0.71031  0.23078  0.23737  Biso   1.000  H
  H24      1.0000 0.28969  0.76922  0.76263  Biso   1.000  H
  H25      1.0000 0.66049  0.57149  0.77593  Biso   1.000  H
  H26      1.0000 0.33951  0.42851  0.22407  Biso   1.000  H
  H27      1.0000 0.83951  0.07149  0.72407  Biso   1.000  H
  H28      1.0000 0.16049  0.92851  0.27593  Biso   1.000  H
  H29      1.0000 0.66049  0.92851  0.22407  Biso   1.000  H
  H30      1.0000 0.33951  0.07149  0.77593  Biso   1.000  H
  H31      1.0000 0.83951  0.42851  0.27593  Biso   1.000  H
  H32      1.0000 0.16049  0.57149  0.72407  Biso   1.000  H
  H33      1.0000 0.48514  0.44290  0.71557  Biso   1.000  H
  H34      1.0000 0.51486  0.55710  0.28443  Biso   1.000  H
  H35      1.0000 0.01486  0.94290  0.78443  Biso   1.000  H
  H36      1.0000 0.98514  0.05710  0.21557  Biso   1.000  H
  H37      1.0000 0.48514  0.05710  0.28443  Biso   1.000  H
  H38      1.0000 0.51486  0.94290  0.71557  Biso   1.000  H
  H39      1.0000 0.01486  0.55710  0.21557  Biso   1.000  H
  H40      1.0000 0.98514  0.44290  0.78443  Biso   1.000  H
  H41      1.0000 0.44437  0.51047  0.61585  Biso   1.000  H
  H42      1.0000 0.55563  0.48953  0.38415  Biso   1.000  H
  H43      1.0000 0.05563  0.01047  0.88415  Biso   1.000  H
  H44      1.0000 0.94437  0.98953  0.11585  Biso   1.000  H
  H45      1.0000 0.44437  0.98953  0.38415  Biso   1.000  H
  H46      1.0000 0.55563  0.01047  0.61585  Biso   1.000  H
  H47      1.0000 0.05563  0.48953  0.11585  Biso   1.000  H
  H48      1.0000 0.94437  0.51047  0.88415  Biso   1.000  H
  H49      1.0000 0.30701  0.86876  0.61524  Biso   1.000  H
  H50      1.0000 0.69299  0.13124  0.38476  Biso   1.000  H
  H51      1.0000 0.19299  0.36876  0.88476  Biso   1.000  H
  H52      1.0000 0.80701  0.63124  0.11524  Biso   1.000  H
  H53      1.0000 0.30701  0.63124  0.38476  Biso   1.000  H
  H54      1.0000 0.69299  0.36876  0.61524  Biso   1.000  H
  H55      1.0000 0.19299  0.13124  0.11524  Biso   1.000  H
  H56      1.0000 0.80701  0.86876  0.88476  Biso   1.000  H
  H57      1.0000 0.07448  0.80404  0.66407  Biso   1.000  H
  H58      1.0000 0.92552  0.19596  0.33593  Biso   1.000  H
  H59      1.0000 0.42552  0.30404  0.83593  Biso   1.000  H
  H60      1.0000 0.57448  0.69596  0.16407  Biso   1.000  H
  H61      1.0000 0.07448  0.69596  0.33593  Biso   1.000  H
  H62      1.0000 0.92552  0.30404  0.66407  Biso   1.000  H
  H63      1.0000 0.42552  0.19596  0.16407  Biso   1.000  H
  H64      1.0000 0.57448  0.80404  0.83593  Biso   1.000  H
  H65      1.0000 0.93998  0.59744  0.63548  Biso   1.000  H
  H66      1.0000 0.06002  0.40256  0.36452  Biso   1.000  H
  H67      1.0000 0.56002  0.09744  0.86452  Biso   1.000  H
  H68      1.0000 0.43998  0.90256  0.13548  Biso   1.000  H
  H69      1.0000 0.93998  0.90256  0.36452  Biso   1.000  H
  H70      1.0000 0.06002  0.09744  0.63548  Biso   1.000  H
  H71      1.0000 0.56002  0.40256  0.13548  Biso   1.000  H
  H72      1.0000 0.43998  0.59744  0.86452  Biso   1.000  H
  H73      1.0000 0.03411  0.45999  0.55555  Biso   1.000  H
  H74      1.0000 0.96589  0.54001  0.44445  Biso   1.000  H
  H75      1.0000 0.46589  0.95999  0.94445  Biso   1.000  H
  H76      1.0000 0.53411  0.04001  0.05555  Biso   1.000  H
  H77      1.0000 0.03411  0.04001  0.44445  Biso   1.000  H
  H78      1.0000 0.96589  0.95999  0.55555  Biso   1.000  H
  H79      1.0000 0.46589  0.54001  0.05555  Biso   1.000  H
  H80      1.0000 0.53411  0.45999  0.94445  Biso   1.000  H
  H81      1.0000 0.26468  0.52578  0.50642  Biso   1.000  H
  H82      1.0000 0.73532  0.47422  0.49358  Biso   1.000  H
  H83      1.0000 0.23532  0.02578  0.99358  Biso   1.000  H
  H84      1.0000 0.76468  0.97422  0.00642  Biso   1.000  H
  H85      1.0000 0.26468  0.97422  0.49358  Biso   1.000  H
  H86      1.0000 0.73532  0.02578  0.50642  Biso   1.000  H
  H87      1.0000 0.23532  0.47422  0.00642  Biso   1.000  H
  H88      1.0000 0.76468  0.52578  0.99358  Biso   1.000  H
  C1       1.0000 0.44630  0.73143  0.52865  Biso   1.000  C
  C2       1.0000 0.55370  0.26857  0.47135  Biso   1.000  C
  C3       1.0000 0.05370  0.23143  0.97135  Biso   1.000  C
  C4       1.0000 0.94630  0.76857  0.02865  Biso   1.000  C
  C5       1.0000 0.44630  0.76857  0.47135  Biso   1.000  C
  C6       1.0000 0.55370  0.23143  0.52865  Biso   1.000  C
  C7       1.0000 0.05370  0.26857  0.02865  Biso   1.000  C
  C8       1.0000 0.94630  0.73143  0.97135  Biso   1.000  C
  C9       1.0000 0.58170  0.71668  0.55839  Biso   1.000  C
  C10      1.0000 0.41830  0.28332  0.44161  Biso   1.000  C
  C11      1.0000 0.91830  0.21668  0.94161  Biso   1.000  C
  C12      1.0000 0.08170  0.78332  0.05839  Biso   1.000  C
  C13      1.0000 0.58170  0.78332  0.44161  Biso   1.000  C
  C14      1.0000 0.41830  0.21668  0.55839  Biso   1.000  C
  C15      1.0000 0.91830  0.28332  0.05839  Biso   1.000  C
  C16      1.0000 0.08170  0.71668  0.94161  Biso   1.000  C
  C17      1.0000 0.71400  0.73483  0.52854  Biso   1.000  C
  C18      1.0000 0.28600  0.26517  0.47146  Biso   1.000  C
  C19      1.0000 0.78600  0.23483  0.97146  Biso   1.000  C
  C20      1.0000 0.21400  0.76517  0.02854  Biso   1.000  C
  C21      1.0000 0.71400  0.76517  0.47146  Biso   1.000  C
  C22      1.0000 0.28600  0.23483  0.52854  Biso   1.000  C
  C23      1.0000 0.78600  0.26517  0.02854  Biso   1.000  C
  C24      1.0000 0.21400  0.73483  0.97146  Biso   1.000  C
  C25      1.0000 0.59321  0.67935  0.61967  Biso   1.000  C
  C26      1.0000 0.40679  0.32065  0.38033  Biso   1.000  C
  C27      1.0000 0.90679  0.17935  0.88033  Biso   1.000  C
  C28      1.0000 0.09321  0.82065  0.11967  Biso   1.000  C
  C29      1.0000 0.59321  0.82065  0.38033  Biso   1.000  C
  C30      1.0000 0.40679  0.17935  0.61967  Biso   1.000  C
  C31      1.0000 0.90679  0.32065  0.11967  Biso   1.000  C
  C32      1.0000 0.09321  0.67935  0.88033  Biso   1.000  C
  C33      1.0000 0.69040  0.75100  0.65439  Biso   1.000  C
  C34      1.0000 0.30960  0.24900  0.34561  Biso   1.000  C
  C35      1.0000 0.80960  0.25100  0.84561  Biso   1.000  C
  C36      1.0000 0.19040  0.74900  0.15439  Biso   1.000  C
  C37      1.0000 0.69040  0.74900  0.34561  Biso   1.000  C
  C38      1.0000 0.30960  0.25100  0.65439  Biso   1.000  C
  C39      1.0000 0.80960  0.24900  0.15439  Biso   1.000  C
  C40      1.0000 0.19040  0.75100  0.84561  Biso   1.000  C
  C41      1.0000 0.71310  0.71260  0.71069  Biso   1.000  C
  C42      1.0000 0.28690  0.28740  0.28931  Biso   1.000  C
  C43      1.0000 0.78690  0.21260  0.78931  Biso   1.000  C
  C44      1.0000 0.21310  0.78740  0.21069  Biso   1.000  C
  C45      1.0000 0.71310  0.78740  0.28931  Biso   1.000  C
  C46      1.0000 0.28690  0.21260  0.71069  Biso   1.000  C
  C47      1.0000 0.78690  0.28740  0.21069  Biso   1.000  C
  C48      1.0000 0.21310  0.71260  0.78931  Biso   1.000  C
  C49      1.0000 0.64030  0.60190  0.73220  Biso   1.000  C
  C50      1.0000 0.35970  0.39810  0.26780  Biso   1.000  C
  C51      1.0000 0.85970  0.10190  0.76780  Biso   1.000  C
  C52      1.0000 0.14030  0.89810  0.23220  Biso   1.000  C
  C53      1.0000 0.64030  0.89810  0.26780  Biso   1.000  C
  C54      1.0000 0.35970  0.10190  0.73220  Biso   1.000  C
  C55      1.0000 0.85970  0.39810  0.23220  Biso   1.000  C
  C56      1.0000 0.14030  0.60190  0.76780  Biso   1.000  C
  C57      1.0000 0.54290  0.53070  0.69898  Biso   1.000  C
  C58      1.0000 0.45710  0.46930  0.30102  Biso   1.000  C
  C59      1.0000 0.95710  0.03070  0.80102  Biso   1.000  C
  C60      1.0000 0.04290  0.96930  0.19898  Biso   1.000  C
  C61      1.0000 0.54290  0.96930  0.30102  Biso   1.000  C
  C62      1.0000 0.45710  0.03070  0.69898  Biso   1.000  C
  C63      1.0000 0.95710  0.46930  0.19898  Biso   1.000  C
  C64      1.0000 0.04290  0.53070  0.80102  Biso   1.000  C
  C65      1.0000 0.51920  0.56913  0.64226  Biso   1.000  C
  C66      1.0000 0.48080  0.43087  0.35774  Biso   1.000  C
  C67      1.0000 0.98080  0.06913  0.85774  Biso   1.000  C
  C68      1.0000 0.01920  0.93087  0.14226  Biso   1.000  C
  C69      1.0000 0.51920  0.93087  0.35774  Biso   1.000  C
  C70      1.0000 0.48080  0.06913  0.64226  Biso   1.000  C
  C71      1.0000 0.98080  0.43087  0.14226  Biso   1.000  C
  C72      1.0000 0.01920  0.56913  0.85774  Biso   1.000  C
  C73      1.0000 0.30180  0.70120  0.55755  Biso   1.000  C
  C74      1.0000 0.69820  0.29880  0.44245  Biso   1.000  C
  C75      1.0000 0.19820  0.20120  0.94245  Biso   1.000  C
  C76      1.0000 0.80180  0.79880  0.05755  Biso   1.000  C
  C77      1.0000 0.30180  0.79880  0.44245  Biso   1.000  C
  C78      1.0000 0.69820  0.20120  0.55755  Biso   1.000  C
  C79      1.0000 0.19820  0.29880  0.05755  Biso   1.000  C
  C80      1.0000 0.80180  0.70120  0.94245  Biso   1.000  C
  C81      1.0000 0.24720  0.77920  0.60178  Biso   1.000  C
  C82      1.0000 0.75280  0.22080  0.39822  Biso   1.000  C
  C83      1.0000 0.25280  0.27920  0.89822  Biso   1.000  C
  C84      1.0000 0.74720  0.72080  0.10178  Biso   1.000  C
  C85      1.0000 0.24720  0.72080  0.39822  Biso   1.000  C
  C86      1.0000 0.75280  0.27920  0.60178  Biso   1.000  C
  C87      1.0000 0.25280  0.22080  0.10178  Biso   1.000  C
  C88      1.0000 0.74720  0.77920  0.89822  Biso   1.000  C
  C89      1.0000 0.11640  0.74230  0.62938  Biso   1.000  C
  C90      1.0000 0.88360  0.25770  0.37062  Biso   1.000  C
  C91      1.0000 0.38360  0.24230  0.87062  Biso   1.000  C
  C92      1.0000 0.61640  0.75770  0.12938  Biso   1.000  C
  C93      1.0000 0.11640  0.75770  0.37062  Biso   1.000  C
  C94      1.0000 0.88360  0.24230  0.62938  Biso   1.000  C
  C95      1.0000 0.38360  0.25770  0.12938  Biso   1.000  C
  C96      1.0000 0.61640  0.74230  0.87062  Biso   1.000  C
  C97      1.0000 0.04070  0.62710  0.61320  Biso   1.000  C
  C98      1.0000 0.95930  0.37290  0.38680  Biso   1.000  C
  C99      1.0000 0.45930  0.12710  0.88680  Biso   1.000  C
  C100     1.0000 0.54070  0.87290  0.11320  Biso   1.000  C
  C101     1.0000 0.04070  0.87290  0.38680  Biso   1.000  C
  C102     1.0000 0.95930  0.12710  0.61320  Biso   1.000  C
  C103     1.0000 0.45930  0.37290  0.11320  Biso   1.000  C
  C104     1.0000 0.54070  0.62710  0.88680  Biso   1.000  C
  C105     1.0000 0.09350  0.55030  0.56860  Biso   1.000  C
  C106     1.0000 0.90650  0.44970  0.43140  Biso   1.000  C
  C107     1.0000 0.40650  0.05030  0.93140  Biso   1.000  C
  C108     1.0000 0.59350  0.94970  0.06860  Biso   1.000  C
  C109     1.0000 0.09350  0.94970  0.43140  Biso   1.000  C
  C110     1.0000 0.90650  0.05030  0.56860  Biso   1.000  C
  C111     1.0000 0.40650  0.44970  0.06860  Biso   1.000  C
  C112     1.0000 0.59350  0.55030  0.93140  Biso   1.000  C
  C113     1.0000 0.22220  0.58751  0.54093  Biso   1.000  C
  C114     1.0000 0.77780  0.41249  0.45907  Biso   1.000  C
  C115     1.0000 0.27780  0.08751  0.95907  Biso   1.000  C
  C116     1.0000 0.72220  0.91249  0.04093  Biso   1.000  C
  C117     1.0000 0.22220  0.91249  0.45907  Biso   1.000  C
  C118     1.0000 0.77780  0.08751  0.54093  Biso   1.000  C
  C119     1.0000 0.27780  0.41249  0.04093  Biso   1.000  C
  C120     1.0000 0.72220  0.58751  0.95907  Biso   1.000  C
