data_image0
_cell_length_a       10.79
_cell_length_b       11.448
_cell_length_c       21.544
_cell_angle_alpha    93.5
_cell_angle_beta     90
_cell_angle_gamma    90

_symmetry_space_group_name_H-M    "P 1"
_symmetry_int_tables_number       1

loop_
  _symmetry_equiv_pos_as_xyz
  'x, y, z'

loop_
  _atom_site_label
  _atom_site_occupancy
  _atom_site_fract_x
  _atom_site_fract_y
  _atom_site_fract_z
  _atom_site_thermal_displace_type
  _atom_site_B_iso_or_equiv
  _atom_site_type_symbol
  H1       1.0000 0.35444  0.24228  0.97661  Biso   1.000  H
  H2       1.0000 0.64556  0.75772  0.02339  Biso   1.000  H
  H3       1.0000 0.85444  0.25772  0.52339  Biso   1.000  H
  H4       1.0000 0.14556  0.74228  0.47661  Biso   1.000  H
  H5       1.0000 0.46369  0.28263  0.07684  Biso   1.000  H
  H6       1.0000 0.53631  0.71737  0.92316  Biso   1.000  H
  H7       1.0000 0.96369  0.21737  0.42316  Biso   1.000  H
  H8       1.0000 0.03631  0.78263  0.57684  Biso   1.000  H
  H9       1.0000 0.68834  0.22840  0.08307  Biso   1.000  H
  H10      1.0000 0.31166  0.77160  0.91693  Biso   1.000  H
  H11      1.0000 0.18834  0.27160  0.41693  Biso   1.000  H
  H12      1.0000 0.81166  0.72840  0.58307  Biso   1.000  H
  H13      1.0000 0.87016  0.14448  0.04062  Biso   1.000  H
  H14      1.0000 0.12984  0.85552  0.95938  Biso   1.000  H
  H15      1.0000 0.37016  0.35552  0.45938  Biso   1.000  H
  H16      1.0000 0.62984  0.64448  0.54062  Biso   1.000  H
  H17      1.0000 0.98323  0.04620  0.95341  Biso   1.000  H
  H18      1.0000 0.01677  0.95380  0.04659  Biso   1.000  H
  H19      1.0000 0.48323  0.45380  0.54659  Biso   1.000  H
  H20      1.0000 0.51677  0.54620  0.45341  Biso   1.000  H
  H21      1.0000 0.87400  0.98432  0.85651  Biso   1.000  H
  H22      1.0000 0.12600  0.01568  0.14349  Biso   1.000  H
  H23      1.0000 0.37400  0.51568  0.64349  Biso   1.000  H
  H24      1.0000 0.62600  0.48432  0.35651  Biso   1.000  H
  H25      1.0000 0.55057  0.24340  0.81614  Biso   1.000  H
  H26      1.0000 0.44943  0.75660  0.18386  Biso   1.000  H
  H27      1.0000 0.05057  0.25660  0.68386  Biso   1.000  H
  H28      1.0000 0.94943  0.74340  0.31614  Biso   1.000  H
  H29      1.0000 0.28621  0.04605  0.91527  Biso   1.000  H
  H30      1.0000 0.71379  0.95395  0.08473  Biso   1.000  H
  H31      1.0000 0.78621  0.45395  0.58473  Biso   1.000  H
  H32      1.0000 0.21379  0.54605  0.41527  Biso   1.000  H
  H33      1.0000 0.10329  0.96129  0.86215  Biso   1.000  H
  H34      1.0000 0.89671  0.03871  0.13785  Biso   1.000  H
  H35      1.0000 0.60329  0.53871  0.63785  Biso   1.000  H
  H36      1.0000 0.39671  0.46129  0.36215  Biso   1.000  H
  H37      1.0000 0.98985  0.91691  0.76498  Biso   1.000  H
  H38      1.0000 0.01015  0.08309  0.23502  Biso   1.000  H
  H39      1.0000 0.48985  0.58309  0.73502  Biso   1.000  H
  H40      1.0000 0.51015  0.41691  0.26498  Biso   1.000  H
  H41      1.0000 0.96848  0.93428  0.65237  Biso   1.000  H
  H42      1.0000 0.03152  0.06572  0.34763  Biso   1.000  H
  H43      1.0000 0.46848  0.56572  0.84763  Biso   1.000  H
  H44      1.0000 0.53152  0.43428  0.15237  Biso   1.000  H
  H45      1.0000 0.04481  0.00408  0.55207  Biso   1.000  H
  H46      1.0000 0.95519  0.99592  0.44793  Biso   1.000  H
  H47      1.0000 0.54481  0.49592  0.94793  Biso   1.000  H
  H48      1.0000 0.45519  0.50408  0.05207  Biso   1.000  H
  H49      1.0000 0.23822  0.12402  0.55215  Biso   1.000  H
  H50      1.0000 0.76178  0.87598  0.44785  Biso   1.000  H
  H51      1.0000 0.73822  0.37598  0.94785  Biso   1.000  H
  H52      1.0000 0.26178  0.62402  0.05215  Biso   1.000  H
  H53      1.0000 0.41771  0.21607  0.60795  Biso   1.000  H
  H54      1.0000 0.58229  0.78393  0.39205  Biso   1.000  H
  H55      1.0000 0.91771  0.28393  0.89205  Biso   1.000  H
  H56      1.0000 0.08229  0.71607  0.10795  Biso   1.000  H
  H57      1.0000 0.52745  0.26627  0.70505  Biso   1.000  H
  H58      1.0000 0.47255  0.73373  0.29495  Biso   1.000  H
  H59      1.0000 0.02745  0.23373  0.79495  Biso   1.000  H
  H60      1.0000 0.97255  0.76627  0.20505  Biso   1.000  H
  H61      1.0000 0.77882  0.09646  0.77111  Biso   1.000  H
  H62      1.0000 0.22118  0.90354  0.22889  Biso   1.000  H
  H63      1.0000 0.27882  0.40354  0.72889  Biso   1.000  H
  H64      1.0000 0.72118  0.59646  0.27111  Biso   1.000  H
  H65      1.0000 0.50556  0.90154  0.86476  Biso   1.000  H
  H66      1.0000 0.49444  0.09846  0.13524  Biso   1.000  H
  H67      1.0000 0.00556  0.59846  0.63524  Biso   1.000  H
  H68      1.0000 0.99444  0.40154  0.36476  Biso   1.000  H
  H69      1.0000 0.34799  0.78504  0.80446  Biso   1.000  H
  H70      1.0000 0.65201  0.21496  0.19554  Biso   1.000  H
  H71      1.0000 0.84799  0.71496  0.69554  Biso   1.000  H
  H72      1.0000 0.15201  0.28504  0.30446  Biso   1.000  H
  H73      1.0000 0.25916  0.72247  0.70415  Biso   1.000  H
  H74      1.0000 0.74084  0.27753  0.29585  Biso   1.000  H
  H75      1.0000 0.75916  0.77753  0.79585  Biso   1.000  H
  H76      1.0000 0.24084  0.22247  0.20415  Biso   1.000  H
  H77      1.0000 0.26412  0.71558  0.59030  Biso   1.000  H
  H78      1.0000 0.73588  0.28442  0.40970  Biso   1.000  H
  H79      1.0000 0.76412  0.78442  0.90970  Biso   1.000  H
  H80      1.0000 0.23588  0.21558  0.09030  Biso   1.000  H
  H81      1.0000 0.36192  0.77096  0.49311  Biso   1.000  H
  H82      1.0000 0.63808  0.22905  0.50689  Biso   1.000  H
  H83      1.0000 0.86192  0.72905  0.00689  Biso   1.000  H
  H84      1.0000 0.13808  0.27095  0.99311  Biso   1.000  H
  H85      1.0000 0.54961  0.89571  0.49561  Biso   1.000  H
  H86      1.0000 0.45039  0.10430  0.50440  Biso   1.000  H
  H87      1.0000 0.04961  0.60429  0.00439  Biso   1.000  H
  H88      1.0000 0.95039  0.39571  0.99561  Biso   1.000  H
  H89      1.0000 0.70835  0.01170  0.55619  Biso   1.000  H
  H90      1.0000 0.29157  0.98832  0.44381  Biso   1.000  H
  H91      1.0000 0.20835  0.48830  0.94381  Biso   1.000  H
  H92      1.0000 0.79165  0.51170  0.05619  Biso   1.000  H
  H93      1.0000 0.78857  0.08664  0.65710  Biso   1.000  H
  H94      1.0000 0.21142  0.91336  0.34289  Biso   1.000  H
  H95      1.0000 0.28857  0.41336  0.84290  Biso   1.000  H
  H96      1.0000 0.71143  0.58664  0.15710  Biso   1.000  H
  C1       1.0000 0.50360  0.15720  0.93020  Biso   1.000  C
  C2       1.0000 0.49640  0.84280  0.06980  Biso   1.000  C
  C3       1.0000 0.00360  0.34280  0.56980  Biso   1.000  C
  C4       1.0000 0.99640  0.65720  0.43020  Biso   1.000  C
  C5       1.0000 0.44990  0.21250  0.98110  Biso   1.000  C
  C6       1.0000 0.55010  0.78750  0.01890  Biso   1.000  C
  C7       1.0000 0.94990  0.28750  0.51890  Biso   1.000  C
  C8       1.0000 0.05010  0.71250  0.48110  Biso   1.000  C
  C9       1.0000 0.51140  0.23760  0.03790  Biso   1.000  C
  C10      1.0000 0.48860  0.76240  0.96210  Biso   1.000  C
  C11      1.0000 0.01140  0.26240  0.46210  Biso   1.000  C
  C12      1.0000 0.98860  0.73760  0.53790  Biso   1.000  C
  C13      1.0000 0.63450  0.20680  0.04100  Biso   1.000  C
  C14      1.0000 0.36550  0.79320  0.95900  Biso   1.000  C
  C15      1.0000 0.13450  0.29320  0.45900  Biso   1.000  C
  C16      1.0000 0.86550  0.70680  0.54100  Biso   1.000  C
  C17      1.0000 0.69530  0.14730  0.99100  Biso   1.000  C
  C18      1.0000 0.30470  0.85270  0.00900  Biso   1.000  C
  C19      1.0000 0.19530  0.35270  0.50900  Biso   1.000  C
  C20      1.0000 0.80470  0.64730  0.49100  Biso   1.000  C
  C21      1.0000 0.82380  0.11830  0.99700  Biso   1.000  C
  C22      1.0000 0.17620  0.88170  0.00300  Biso   1.000  C
  C23      1.0000 0.32380  0.38170  0.50300  Biso   1.000  C
  C24      1.0000 0.67620  0.61830  0.49700  Biso   1.000  C
  C25      1.0000 0.88450  0.06480  0.94960  Biso   1.000  C
  C26      1.0000 0.11550  0.93520  0.05040  Biso   1.000  C
  C27      1.0000 0.38450  0.43520  0.55040  Biso   1.000  C
  C28      1.0000 0.61550  0.56480  0.44960  Biso   1.000  C
  C29      1.0000 0.82340  0.03110  0.89390  Biso   1.000  C
  C30      1.0000 0.17660  0.96890  0.10610  Biso   1.000  C
  C31      1.0000 0.32340  0.46890  0.60610  Biso   1.000  C
  C32      1.0000 0.67660  0.53110  0.39390  Biso   1.000  C
  C33      1.0000 0.69800  0.05320  0.88540  Biso   1.000  C
  C34      1.0000 0.30200  0.94680  0.11460  Biso   1.000  C
  C35      1.0000 0.19800  0.44680  0.61460  Biso   1.000  C
  C36      1.0000 0.80200  0.55320  0.38540  Biso   1.000  C
  C37      1.0000 0.63200  0.11700  0.93340  Biso   1.000  C
  C38      1.0000 0.36800  0.88300  0.06660  Biso   1.000  C
  C39      1.0000 0.13200  0.38300  0.56660  Biso   1.000  C
  C40      1.0000 0.86800  0.61700  0.43340  Biso   1.000  C
  C41      1.0000 0.46520  0.19270  0.81690  Biso   1.000  C
  C42      1.0000 0.53480  0.80730  0.18310  Biso   1.000  C
  C43      1.0000 0.96520  0.30730  0.68310  Biso   1.000  C
  C44      1.0000 0.03480  0.69270  0.31690  Biso   1.000  C
  C45      1.0000 0.42900  0.14580  0.87250  Biso   1.000  C
  C46      1.0000 0.57100  0.85420  0.12750  Biso   1.000  C
  C47      1.0000 0.92900  0.35420  0.62750  Biso   1.000  C
  C48      1.0000 0.07100  0.64580  0.37250  Biso   1.000  C
  C49      1.0000 0.31630  0.08360  0.87240  Biso   1.000  C
  C50      1.0000 0.68370  0.91640  0.12760  Biso   1.000  C
  C51      1.0000 0.81630  0.41640  0.62760  Biso   1.000  C
  C52      1.0000 0.18370  0.58360  0.37240  Biso   1.000  C
  C53      1.0000 0.24650  0.06400  0.81930  Biso   1.000  C
  C54      1.0000 0.75350  0.93600  0.18070  Biso   1.000  C
  C55      1.0000 0.74650  0.43600  0.68070  Biso   1.000  C
  C56      1.0000 0.25350  0.56400  0.31930  Biso   1.000  C
  C57      1.0000 0.28940  0.10620  0.76280  Biso   1.000  C
  C58      1.0000 0.71060  0.89380  0.23720  Biso   1.000  C
  C59      1.0000 0.78940  0.39380  0.73720  Biso   1.000  C
  C60      1.0000 0.21060  0.60620  0.26280  Biso   1.000  C
  C61      1.0000 0.13490  0.99490  0.81860  Biso   1.000  C
  C62      1.0000 0.86510  0.00510  0.18140  Biso   1.000  C
  C63      1.0000 0.63490  0.50510  0.68140  Biso   1.000  C
  C64      1.0000 0.36510  0.49490  0.31860  Biso   1.000  C
  C65      1.0000 0.07340  0.97070  0.76540  Biso   1.000  C
  C66      1.0000 0.92660  0.02930  0.23460  Biso   1.000  C
  C67      1.0000 0.57340  0.52930  0.73460  Biso   1.000  C
  C68      1.0000 0.42660  0.47070  0.26540  Biso   1.000  C
  C69      1.0000 0.11450  0.01070  0.70710  Biso   1.000  C
  C70      1.0000 0.88550  0.98930  0.29290  Biso   1.000  C
  C71      1.0000 0.61450  0.48930  0.79290  Biso   1.000  C
  C72      1.0000 0.38550  0.51070  0.20710  Biso   1.000  C
  C73      1.0000 0.22440  0.07990  0.70710  Biso   1.000  C
  C74      1.0000 0.77560  0.92010  0.29290  Biso   1.000  C
  C75      1.0000 0.72440  0.42010  0.79290  Biso   1.000  C
  C76      1.0000 0.27560  0.57990  0.20710  Biso   1.000  C
  C77      1.0000 0.05330  0.98630  0.65160  Biso   1.000  C
  C78      1.0000 0.94670  0.01370  0.34840  Biso   1.000  C
  C79      1.0000 0.55330  0.51370  0.84840  Biso   1.000  C
  C80      1.0000 0.44670  0.48630  0.15160  Biso   1.000  C
  C81      1.0000 0.09550  0.02450  0.59500  Biso   1.000  C
  C82      1.0000 0.90450  0.97550  0.40500  Biso   1.000  C
  C83      1.0000 0.59550  0.47550  0.90500  Biso   1.000  C
  C84      1.0000 0.40450  0.52450  0.09500  Biso   1.000  C
  C85      1.0000 0.20350  0.09200  0.59550  Biso   1.000  C
  C86      1.0000 0.79650  0.90800  0.40450  Biso   1.000  C
  C87      1.0000 0.70350  0.40800  0.90450  Biso   1.000  C
  C88      1.0000 0.29650  0.59200  0.09550  Biso   1.000  C
  C89      1.0000 0.26840  0.11950  0.65010  Biso   1.000  C
  C90      1.0000 0.73160  0.88050  0.34990  Biso   1.000  C
  C91      1.0000 0.76840  0.38050  0.84990  Biso   1.000  C
  C92      1.0000 0.23160  0.61950  0.15010  Biso   1.000  C
  C93      1.0000 0.38290  0.18680  0.65190  Biso   1.000  C
  C94      1.0000 0.61710  0.81320  0.34810  Biso   1.000  C
  C95      1.0000 0.88290  0.31320  0.84810  Biso   1.000  C
  C96      1.0000 0.11710  0.68680  0.15190  Biso   1.000  C
  C97      1.0000 0.44210  0.21530  0.70480  Biso   1.000  C
  C98      1.0000 0.55790  0.78470  0.29520  Biso   1.000  C
  C99      1.0000 0.94210  0.28470  0.79520  Biso   1.000  C
  C100     1.0000 0.05790  0.71530  0.20480  Biso   1.000  C
  C101     1.0000 0.39940  0.17400  0.76290  Biso   1.000  C
  C102     1.0000 0.60060  0.82600  0.23710  Biso   1.000  C
  C103     1.0000 0.89940  0.32600  0.73710  Biso   1.000  C
  C104     1.0000 0.10060  0.67400  0.26290  Biso   1.000  C
  C105     1.0000 0.70160  0.03470  0.76930  Biso   1.000  C
  C106     1.0000 0.29840  0.96530  0.23070  Biso   1.000  C
  C107     1.0000 0.20160  0.46530  0.73070  Biso   1.000  C
  C108     1.0000 0.79840  0.53470  0.26930  Biso   1.000  C
  C109     1.0000 0.64770  0.00570  0.82520  Biso   1.000  C
  C110     1.0000 0.35230  0.99430  0.17480  Biso   1.000  C
  C111     1.0000 0.14770  0.49430  0.67480  Biso   1.000  C
  C112     1.0000 0.85230  0.50570  0.32520  Biso   1.000  C
  C113     1.0000 0.54820  0.92700  0.82180  Biso   1.000  C
  C114     1.0000 0.45180  0.07300  0.17820  Biso   1.000  C
  C115     1.0000 0.04820  0.57300  0.67820  Biso   1.000  C
  C116     1.0000 0.95180  0.42700  0.32180  Biso   1.000  C
  C117     1.0000 0.50060  0.88410  0.76600  Biso   1.000  C
  C118     1.0000 0.49940  0.11590  0.23400  Biso   1.000  C
  C119     1.0000 0.00060  0.61590  0.73400  Biso   1.000  C
  C120     1.0000 0.99940  0.38410  0.26600  Biso   1.000  C
  C121     1.0000 0.55480  0.91690  0.70950  Biso   1.000  C
  C122     1.0000 0.44520  0.08310  0.29050  Biso   1.000  C
  C123     1.0000 0.05480  0.58310  0.79050  Biso   1.000  C
  C124     1.0000 0.94520  0.41690  0.20950  Biso   1.000  C
  C125     1.0000 0.39170  0.80950  0.76150  Biso   1.000  C
  C126     1.0000 0.60830  0.19050  0.23850  Biso   1.000  C
  C127     1.0000 0.89170  0.69050  0.73850  Biso   1.000  C
  C128     1.0000 0.10830  0.30950  0.26150  Biso   1.000  C
  C129     1.0000 0.34320  0.77560  0.70630  Biso   1.000  C
  C130     1.0000 0.65680  0.22440  0.29370  Biso   1.000  C
  C131     1.0000 0.84320  0.72440  0.79370  Biso   1.000  C
  C132     1.0000 0.15680  0.27560  0.20630  Biso   1.000  C
  C133     1.0000 0.39620  0.80620  0.64890  Biso   1.000  C
  C134     1.0000 0.60380  0.19380  0.35110  Biso   1.000  C
  C135     1.0000 0.89620  0.69380  0.85110  Biso   1.000  C
  C136     1.0000 0.10380  0.30620  0.14890  Biso   1.000  C
  C137     1.0000 0.50360  0.87820  0.65170  Biso   1.000  C
  C138     1.0000 0.49640  0.12180  0.34830  Biso   1.000  C
  C139     1.0000 0.00360  0.62180  0.84830  Biso   1.000  C
  C140     1.0000 0.99640  0.37820  0.15170  Biso   1.000  C
  C141     1.0000 0.34680  0.77050  0.59190  Biso   1.000  C
  C142     1.0000 0.65320  0.22950  0.40810  Biso   1.000  C
  C143     1.0000 0.84680  0.72950  0.90810  Biso   1.000  C
  C144     1.0000 0.15320  0.27050  0.09190  Biso   1.000  C
  C145     1.0000 0.40110  0.80150  0.53790  Biso   1.000  C
  C146     1.0000 0.59890  0.19850  0.46210  Biso   1.000  C
  C147     1.0000 0.90110  0.69850  0.96210  Biso   1.000  C
  C148     1.0000 0.09890  0.30150  0.03790  Biso   1.000  C
  C149     1.0000 0.50730  0.87160  0.53890  Biso   1.000  C
  C150     1.0000 0.49270  0.12840  0.46110  Biso   1.000  C
  C151     1.0000 0.00730  0.62840  0.96110  Biso   1.000  C
  C152     1.0000 0.99270  0.37160  0.03890  Biso   1.000  C
  C153     1.0000 0.55850  0.91050  0.59540  Biso   1.000  C
  C154     1.0000 0.44150  0.08950  0.40460  Biso   1.000  C
  C155     1.0000 0.05850  0.58950  0.90460  Biso   1.000  C
  C156     1.0000 0.94150  0.41050  0.09540  Biso   1.000  C
  C157     1.0000 0.66660  0.98580  0.59940  Biso   1.000  C
  C158     1.0000 0.33333  0.01420  0.40060  Biso   1.000  C
  C159     1.0000 0.16660  0.51420  0.90060  Biso   1.000  C
  C160     1.0000 0.83340  0.48580  0.09940  Biso   1.000  C
  C161     1.0000 0.71000  0.02630  0.65450  Biso   1.000  C
  C162     1.0000 0.29000  0.97370  0.34550  Biso   1.000  C
  C163     1.0000 0.21000  0.47370  0.84550  Biso   1.000  C
  C164     1.0000 0.79000  0.52630  0.15450  Biso   1.000  C
  C165     1.0000 0.65840  0.99340  0.71240  Biso   1.000  C
  C166     1.0000 0.34160  0.00660  0.28760  Biso   1.000  C
  C167     1.0000 0.15840  0.50660  0.78760  Biso   1.000  C
  C168     1.0000 0.84160  0.49340  0.21240  Biso   1.000  C
