data_image0
_cell_length_a       6.024
_cell_length_b       11.729
_cell_length_c       18.582
_cell_angle_alpha    90
_cell_angle_beta     90
_cell_angle_gamma    90

_symmetry_space_group_name_H-M    "P 1"
_symmetry_int_tables_number       1

loop_
  _symmetry_equiv_pos_as_xyz
  'x, y, z'

loop_
  _atom_site_label
  _atom_site_occupancy
  _atom_site_fract_x
  _atom_site_fract_y
  _atom_site_fract_z
  _atom_site_thermal_displace_type
  _atom_site_B_iso_or_equiv
  _atom_site_type_symbol
  H1       1.0000 0.27168  0.24307  0.17622  Biso   1.000  H
  H2       1.0000 0.72832  0.74307  0.32378  Biso   1.000  H
  H3       1.0000 0.77168  0.25693  0.82378  Biso   1.000  H
  H4       1.0000 0.22832  0.75693  0.67622  Biso   1.000  H
  H5       1.0000 0.53433  0.32705  0.09142  Biso   1.000  H
  H6       1.0000 0.46567  0.82705  0.40858  Biso   1.000  H
  H7       1.0000 0.03433  0.17295  0.90858  Biso   1.000  H
  H8       1.0000 0.96567  0.67295  0.59142  Biso   1.000  H
  H9       1.0000 0.77523  0.49181  0.13401  Biso   1.000  H
  H10      1.0000 0.22477  0.99181  0.36599  Biso   1.000  H
  H11      1.0000 0.27523  0.00819  0.86599  Biso   1.000  H
  H12      1.0000 0.72477  0.50819  0.63401  Biso   1.000  H
  H13      1.0000 0.72304  0.56817  0.25386  Biso   1.000  H
  H14      1.0000 0.27696  0.06817  0.24614  Biso   1.000  H
  H15      1.0000 0.22304  0.93183  0.74614  Biso   1.000  H
  H16      1.0000 0.77696  0.43183  0.75386  Biso   1.000  H
  H17      1.0000 0.10639  0.55857  0.34020  Biso   1.000  H
  H18      1.0000 0.89361  0.05857  0.15980  Biso   1.000  H
  H19      1.0000 0.60639  0.94143  0.65980  Biso   1.000  H
  H20      1.0000 0.39361  0.44143  0.84020  Biso   1.000  H
  H21      1.0000 0.07875  0.65114  0.45933  Biso   1.000  H
  H22      1.0000 0.92125  0.15114  0.04067  Biso   1.000  H
  H23      1.0000 0.57875  0.84886  0.54067  Biso   1.000  H
  H24      1.0000 0.42125  0.34886  0.95933  Biso   1.000  H
  H25      1.0000 0.39483  0.64987  0.54267  Biso   1.000  H
  H26      1.0000 0.60517  0.14987  0.95733  Biso   1.000  H
  H27      1.0000 0.89483  0.85013  0.45733  Biso   1.000  H
  H28      1.0000 0.10517  0.35013  0.04267  Biso   1.000  H
  H29      1.0000 0.74481  0.55686  0.50612  Biso   1.000  H
  H30      1.0000 0.25519  0.05686  0.99388  Biso   1.000  H
  H31      1.0000 0.24481  0.94314  0.49388  Biso   1.000  H
  H32      1.0000 0.75519  0.44314  0.00612  Biso   1.000  H
  H33      1.0000 0.77564  0.46479  0.38833  Biso   1.000  H
  H34      1.0000 0.22436  0.96479  0.11167  Biso   1.000  H
  H35      1.0000 0.27564  0.03521  0.61167  Biso   1.000  H
  H36      1.0000 0.72436  0.53521  0.88833  Biso   1.000  H
  H37      1.0000 0.39444  0.29587  0.40250  Biso   1.000  H
  H38      1.0000 0.60556  0.79587  0.09750  Biso   1.000  H
  H39      1.0000 0.89444  0.20413  0.59750  Biso   1.000  H
  H40      1.0000 0.10556  0.70413  0.90250  Biso   1.000  H
  H41      1.0000 0.13919  0.19133  0.48049  Biso   1.000  H
  H42      1.0000 0.86081  0.69133  0.01951  Biso   1.000  H
  H43      1.0000 0.63919  0.30867  0.51951  Biso   1.000  H
  H44      1.0000 0.36081  0.80867  0.98049  Biso   1.000  H
  H45      1.0000 0.77525  0.12412  0.43392  Biso   1.000  H
  H46      1.0000 0.22475  0.62412  0.06608  Biso   1.000  H
  H47      1.0000 0.27525  0.37588  0.56608  Biso   1.000  H
  H48      1.0000 0.72475  0.87588  0.93392  Biso   1.000  H
  H49      1.0000 0.67138  0.16929  0.30640  Biso   1.000  H
  H50      1.0000 0.32862  0.66929  0.19360  Biso   1.000  H
  H51      1.0000 0.17138  0.33071  0.69360  Biso   1.000  H
  H52      1.0000 0.82862  0.83071  0.80640  Biso   1.000  H
  H53      1.0000 0.92309  0.28035  0.23020  Biso   1.000  H
  H54      1.0000 0.07691  0.78035  0.26980  Biso   1.000  H
  H55      1.0000 0.42309  0.21965  0.76980  Biso   1.000  H
  H56      1.0000 0.57691  0.71965  0.73020  Biso   1.000  H
  C1       1.0000 0.33630  0.35790  0.26190  Biso   1.000  C
  C2       1.0000 0.66370  0.85790  0.23810  Biso   1.000  C
  C3       1.0000 0.83630  0.14210  0.73810  Biso   1.000  C
  C4       1.0000 0.16370  0.64210  0.76190  Biso   1.000  C
  C5       1.0000 0.36950  0.31680  0.19320  Biso   1.000  C
  C6       1.0000 0.63050  0.81680  0.30680  Biso   1.000  C
  C7       1.0000 0.86950  0.18320  0.80680  Biso   1.000  C
  C8       1.0000 0.13050  0.68320  0.69320  Biso   1.000  C
  C9       1.0000 0.51430  0.36320  0.14490  Biso   1.000  C
  C10      1.0000 0.48570  0.86320  0.35510  Biso   1.000  C
  C11      1.0000 0.01430  0.13680  0.85510  Biso   1.000  C
  C12      1.0000 0.98570  0.63680  0.64490  Biso   1.000  C
  C13      1.0000 0.65180  0.45380  0.16950  Biso   1.000  C
  C14      1.0000 0.34820  0.95380  0.33050  Biso   1.000  C
  C15      1.0000 0.15180  0.04620  0.83050  Biso   1.000  C
  C16      1.0000 0.84820  0.54620  0.66950  Biso   1.000  C
  C17      1.0000 0.62140  0.49630  0.23650  Biso   1.000  C
  C18      1.0000 0.37860  0.99630  0.26350  Biso   1.000  C
  C19      1.0000 0.12140  0.00370  0.76350  Biso   1.000  C
  C20      1.0000 0.87860  0.50370  0.73650  Biso   1.000  C
  C21      1.0000 0.46930  0.45130  0.28480  Biso   1.000  C
  C22      1.0000 0.53070  0.95130  0.21520  Biso   1.000  C
  C23      1.0000 0.96930  0.04870  0.71520  Biso   1.000  C
  C24      1.0000 0.03070  0.54870  0.78480  Biso   1.000  C
  C25      1.0000 0.44530  0.50640  0.35620  Biso   1.000  C
  C26      1.0000 0.55470  0.00640  0.14380  Biso   1.000  C
  C27      1.0000 0.94530  0.99360  0.64380  Biso   1.000  C
  C28      1.0000 0.05470  0.49360  0.85620  Biso   1.000  C
  C29      1.0000 0.24760  0.55790  0.37680  Biso   1.000  C
  C30      1.0000 0.75240  0.05790  0.12320  Biso   1.000  C
  C31      1.0000 0.74760  0.94210  0.62320  Biso   1.000  C
  C32      1.0000 0.25240  0.44210  0.87680  Biso   1.000  C
  C33      1.0000 0.23390  0.60980  0.44400  Biso   1.000  C
  C34      1.0000 0.76610  0.10980  0.05600  Biso   1.000  C
  C35      1.0000 0.73390  0.89020  0.55600  Biso   1.000  C
  C36      1.0000 0.26610  0.39020  0.94400  Biso   1.000  C
  C37      1.0000 0.40900  0.61050  0.48970  Biso   1.000  C
  C38      1.0000 0.59100  0.11050  0.01030  Biso   1.000  C
  C39      1.0000 0.90900  0.88950  0.51030  Biso   1.000  C
  C40      1.0000 0.09100  0.38950  0.98970  Biso   1.000  C
  C41      1.0000 0.60380  0.55900  0.46940  Biso   1.000  C
  C42      1.0000 0.39620  0.05900  0.03060  Biso   1.000  C
  C43      1.0000 0.10380  0.94100  0.53060  Biso   1.000  C
  C44      1.0000 0.89620  0.44100  0.96940  Biso   1.000  C
  C45      1.0000 0.62190  0.50790  0.40330  Biso   1.000  C
  C46      1.0000 0.37810  0.00790  0.09670  Biso   1.000  C
  C47      1.0000 0.12190  0.99210  0.59670  Biso   1.000  C
  C48      1.0000 0.87810  0.49210  0.90330  Biso   1.000  C
  C49      1.0000 0.17840  0.29830  0.31040  Biso   1.000  C
  C50      1.0000 0.82160  0.79830  0.18960  Biso   1.000  C
  C51      1.0000 0.67840  0.20170  0.68960  Biso   1.000  C
  C52      1.0000 0.32160  0.70170  0.81040  Biso   1.000  C
  C53      1.0000 0.23360  0.27080  0.38100  Biso   1.000  C
  C54      1.0000 0.76640  0.77080  0.11900  Biso   1.000  C
  C55      1.0000 0.73360  0.22920  0.61900  Biso   1.000  C
  C56      1.0000 0.26640  0.72920  0.88100  Biso   1.000  C
  C57      1.0000 0.08750  0.21070  0.42560  Biso   1.000  C
  C58      1.0000 0.91250  0.71070  0.07440  Biso   1.000  C
  C59      1.0000 0.58750  0.28930  0.57440  Biso   1.000  C
  C60      1.0000 0.41250  0.78930  0.92560  Biso   1.000  C
  C61      1.0000 0.88810  0.17320  0.40010  Biso   1.000  C
  C62      1.0000 0.11190  0.67320  0.09990  Biso   1.000  C
  C63      1.0000 0.38810  0.32680  0.59990  Biso   1.000  C
  C64      1.0000 0.61190  0.82680  0.90010  Biso   1.000  C
  C65      1.0000 0.82940  0.19840  0.32800  Biso   1.000  C
  C66      1.0000 0.17060  0.69840  0.17200  Biso   1.000  C
  C67      1.0000 0.32940  0.30160  0.67200  Biso   1.000  C
  C68      1.0000 0.67060  0.80160  0.82800  Biso   1.000  C
  C69      1.0000 0.97340  0.26010  0.28510  Biso   1.000  C
  C70      1.0000 0.02660  0.76010  0.21490  Biso   1.000  C
  C71      1.0000 0.47340  0.23990  0.71490  Biso   1.000  C
  C72      1.0000 0.52660  0.73990  0.78510  Biso   1.000  C
