data_image0
_cell_length_a       9.263
_cell_length_b       12.56
_cell_length_c       24.85
_cell_angle_alpha    90
_cell_angle_beta     90
_cell_angle_gamma    102.17

_symmetry_space_group_name_H-M    "P 1"
_symmetry_int_tables_number       1

loop_
  _symmetry_equiv_pos_as_xyz
  'x, y, z'

loop_
  _atom_site_label
  _atom_site_occupancy
  _atom_site_fract_x
  _atom_site_fract_y
  _atom_site_fract_z
  _atom_site_thermal_displace_type
  _atom_site_B_iso_or_equiv
  _atom_site_type_symbol
  H1       1.0000 0.84031  0.08952  0.32768  Biso   1.000  H
  H2       1.0000 0.15969  0.91048  0.67232  Biso   1.000  H
  H3       1.0000 0.15969  0.41048  0.82768  Biso   1.000  H
  H4       1.0000 0.84031  0.58952  0.17232  Biso   1.000  H
  H5       1.0000 0.07874  0.03382  0.32973  Biso   1.000  H
  H6       1.0000 0.92126  0.96618  0.67027  Biso   1.000  H
  H7       1.0000 0.92126  0.46618  0.82973  Biso   1.000  H
  H8       1.0000 0.07874  0.53382  0.17027  Biso   1.000  H
  H9       1.0000 0.24901  0.08561  0.40654  Biso   1.000  H
  H10      1.0000 0.75099  0.91439  0.59346  Biso   1.000  H
  H11      1.0000 0.75099  0.41439  0.90654  Biso   1.000  H
  H12      1.0000 0.24901  0.58561  0.09346  Biso   1.000  H
  H13      1.0000 0.18453  0.19381  0.48067  Biso   1.000  H
  H14      1.0000 0.81547  0.80619  0.51933  Biso   1.000  H
  H15      1.0000 0.81547  0.30619  0.98067  Biso   1.000  H
  H16      1.0000 0.18453  0.69381  0.01933  Biso   1.000  H
  H17      1.0000 0.82074  0.38012  0.56712  Biso   1.000  H
  H18      1.0000 0.17926  0.61988  0.43288  Biso   1.000  H
  H19      1.0000 0.17926  0.11988  0.06712  Biso   1.000  H
  H20      1.0000 0.82074  0.88012  0.93288  Biso   1.000  H
  H21      1.0000 0.57666  0.42539  0.56772  Biso   1.000  H
  H22      1.0000 0.42334  0.57461  0.43228  Biso   1.000  H
  H23      1.0000 0.42334  0.07461  0.06772  Biso   1.000  H
  H24      1.0000 0.57666  0.92539  0.93228  Biso   1.000  H
  H25      1.0000 0.40193  0.36711  0.49245  Biso   1.000  H
  H26      1.0000 0.59807  0.63289  0.50755  Biso   1.000  H
  H27      1.0000 0.59807  0.13289  0.99245  Biso   1.000  H
  H28      1.0000 0.40193  0.86711  0.00755  Biso   1.000  H
  H29      1.0000 0.47238  0.26489  0.41648  Biso   1.000  H
  H30      1.0000 0.52762  0.73511  0.58352  Biso   1.000  H
  H31      1.0000 0.52762  0.23511  0.91648  Biso   1.000  H
  H32      1.0000 0.47238  0.76489  0.08352  Biso   1.000  H
  H33      1.0000 0.98273  0.13775  0.57254  Biso   1.000  H
  H34      1.0000 0.01727  0.86225  0.42746  Biso   1.000  H
  H35      1.0000 0.01727  0.36225  0.07254  Biso   1.000  H
  H36      1.0000 0.98273  0.63775  0.92746  Biso   1.000  H
  H37      1.0000 0.15270  0.18670  0.64839  Biso   1.000  H
  H38      1.0000 0.84730  0.81330  0.35161  Biso   1.000  H
  H39      1.0000 0.84730  0.31330  0.14839  Biso   1.000  H
  H40      1.0000 0.15270  0.68670  0.85161  Biso   1.000  H
  H41      1.0000 0.30519  0.37330  0.65629  Biso   1.000  H
  H42      1.0000 0.69481  0.62670  0.34371  Biso   1.000  H
  H43      1.0000 0.69481  0.12670  0.15629  Biso   1.000  H
  H44      1.0000 0.30519  0.87330  0.84371  Biso   1.000  H
  H45      1.0000 0.28146  0.50947  0.58744  Biso   1.000  H
  H46      1.0000 0.71854  0.49053  0.41256  Biso   1.000  H
  H47      1.0000 0.71854  0.99053  0.08744  Biso   1.000  H
  H48      1.0000 0.28146  0.00947  0.91256  Biso   1.000  H
  H49      1.0000 0.11004  0.46186  0.51189  Biso   1.000  H
  H50      1.0000 0.88996  0.53814  0.48811  Biso   1.000  H
  H51      1.0000 0.88996  0.03814  0.01189  Biso   1.000  H
  H52      1.0000 0.11004  0.96186  0.98811  Biso   1.000  H
  H53      1.0000 0.59771  0.02891  0.44377  Biso   1.000  H
  H54      1.0000 0.40229  0.97109  0.55623  Biso   1.000  H
  H55      1.0000 0.40229  0.47109  0.94377  Biso   1.000  H
  H56      1.0000 0.59771  0.52891  0.05623  Biso   1.000  H
  H57      1.0000 0.42212  0.85501  0.45238  Biso   1.000  H
  H58      1.0000 0.57788  0.14499  0.54762  Biso   1.000  H
  H59      1.0000 0.57788  0.64499  0.95238  Biso   1.000  H
  H60      1.0000 0.42212  0.35501  0.04762  Biso   1.000  H
  H61      1.0000 0.24452  0.78941  0.37868  Biso   1.000  H
  H62      1.0000 0.75548  0.21059  0.62132  Biso   1.000  H
  H63      1.0000 0.75548  0.71059  0.87868  Biso   1.000  H
  H64      1.0000 0.24452  0.28941  0.12132  Biso   1.000  H
  H65      1.0000 0.24371  0.89507  0.29669  Biso   1.000  H
  H66      1.0000 0.75629  0.10493  0.70331  Biso   1.000  H
  H67      1.0000 0.75629  0.60493  0.79669  Biso   1.000  H
  H68      1.0000 0.24371  0.39507  0.20331  Biso   1.000  H
  H69      1.0000 0.46869  0.22291  0.18734  Biso   1.000  H
  H70      1.0000 0.53131  0.77709  0.81266  Biso   1.000  H
  H71      1.0000 0.53131  0.27709  0.68734  Biso   1.000  H
  H72      1.0000 0.46869  0.72291  0.31266  Biso   1.000  H
  H73      1.0000 0.64613  0.39540  0.17994  Biso   1.000  H
  H74      1.0000 0.35387  0.60460  0.82006  Biso   1.000  H
  H75      1.0000 0.35387  0.10460  0.67994  Biso   1.000  H
  H76      1.0000 0.64613  0.89540  0.32006  Biso   1.000  H
  H77      1.0000 0.81588  0.46390  0.25557  Biso   1.000  H
  H78      1.0000 0.18412  0.53610  0.74443  Biso   1.000  H
  H79      1.0000 0.18412  0.03610  0.75557  Biso   1.000  H
  H80      1.0000 0.81588  0.96390  0.24443  Biso   1.000  H
  H81      1.0000 0.80748  0.35753  0.33822  Biso   1.000  H
  H82      1.0000 0.19252  0.64247  0.66178  Biso   1.000  H
  H83      1.0000 0.19252  0.14247  0.83822  Biso   1.000  H
  H84      1.0000 0.80748  0.85753  0.16178  Biso   1.000  H
  H85      1.0000 0.44484  0.92191  0.20598  Biso   1.000  H
  H86      1.0000 0.55516  0.07809  0.79402  Biso   1.000  H
  H87      1.0000 0.55516  0.57809  0.70598  Biso   1.000  H
  H88      1.0000 0.44484  0.42191  0.29402  Biso   1.000  H
  H89      1.0000 0.27217  0.84621  0.13356  Biso   1.000  H
  H90      1.0000 0.72783  0.15379  0.86644  Biso   1.000  H
  H91      1.0000 0.72783  0.65379  0.63356  Biso   1.000  H
  H92      1.0000 0.27217  0.34621  0.36644  Biso   1.000  H
  H93      1.0000 0.05753  0.92543  0.11344  Biso   1.000  H
  H94      1.0000 0.94247  0.07457  0.88656  Biso   1.000  H
  H95      1.0000 0.94247  0.57457  0.61344  Biso   1.000  H
  H96      1.0000 0.05753  0.42543  0.38656  Biso   1.000  H
  H97      1.0000 0.01493  0.08275  0.16626  Biso   1.000  H
  H98      1.0000 0.98507  0.91725  0.83374  Biso   1.000  H
  H99      1.0000 0.98507  0.41725  0.66626  Biso   1.000  H
  H100     1.0000 0.01493  0.58275  0.33374  Biso   1.000  H
  H101     1.0000 0.18668  0.15820  0.23965  Biso   1.000  H
  H102     1.0000 0.81332  0.84180  0.76035  Biso   1.000  H
  H103     1.0000 0.81332  0.34180  0.73965  Biso   1.000  H
  H104     1.0000 0.18668  0.65820  0.26035  Biso   1.000  H
  C1       1.0000 0.91540  0.11200  0.36150  Biso   1.000  C
  C2       1.0000 0.08460  0.88800  0.63850  Biso   1.000  C
  C3       1.0000 0.08460  0.38800  0.86150  Biso   1.000  C
  C4       1.0000 0.91540  0.61200  0.13850  Biso   1.000  C
  C5       1.0000 0.04710  0.08160  0.36260  Biso   1.000  C
  C6       1.0000 0.95290  0.91840  0.63740  Biso   1.000  C
  C7       1.0000 0.95290  0.41840  0.86260  Biso   1.000  C
  C8       1.0000 0.04710  0.58160  0.13740  Biso   1.000  C
  C9       1.0000 0.14380  0.11130  0.40610  Biso   1.000  C
  C10      1.0000 0.85620  0.88870  0.59390  Biso   1.000  C
  C11      1.0000 0.85620  0.38870  0.90610  Biso   1.000  C
  C12      1.0000 0.14380  0.61130  0.09390  Biso   1.000  C
  C13      1.0000 0.10850  0.17100  0.44720  Biso   1.000  C
  C14      1.0000 0.89150  0.82900  0.55280  Biso   1.000  C
  C15      1.0000 0.89150  0.32900  0.94720  Biso   1.000  C
  C16      1.0000 0.10850  0.67100  0.05280  Biso   1.000  C
  C17      1.0000 0.74540  0.35490  0.53370  Biso   1.000  C
  C18      1.0000 0.25460  0.64510  0.46630  Biso   1.000  C
  C19      1.0000 0.25460  0.14510  0.03370  Biso   1.000  C
  C20      1.0000 0.74540  0.85490  0.96630  Biso   1.000  C
  C21      1.0000 0.60950  0.38000  0.53410  Biso   1.000  C
  C22      1.0000 0.39050  0.62000  0.46590  Biso   1.000  C
  C23      1.0000 0.39050  0.12000  0.03410  Biso   1.000  C
  C24      1.0000 0.60950  0.88000  0.96590  Biso   1.000  C
  C25      1.0000 0.51060  0.34660  0.49130  Biso   1.000  C
  C26      1.0000 0.48940  0.65340  0.50870  Biso   1.000  C
  C27      1.0000 0.48940  0.15340  0.99130  Biso   1.000  C
  C28      1.0000 0.51060  0.84660  0.00870  Biso   1.000  C
  C29      1.0000 0.54890  0.29050  0.44960  Biso   1.000  C
  C30      1.0000 0.45110  0.70950  0.55040  Biso   1.000  C
  C31      1.0000 0.45110  0.20950  0.94960  Biso   1.000  C
  C32      1.0000 0.54890  0.79050  0.05040  Biso   1.000  C
  C33      1.0000 0.73220  0.20300  0.40410  Biso   1.000  C
  C34      1.0000 0.26780  0.79700  0.59590  Biso   1.000  C
  C35      1.0000 0.26780  0.29700  0.90410  Biso   1.000  C
  C36      1.0000 0.73220  0.70300  0.09590  Biso   1.000  C
  C37      1.0000 0.93010  0.26550  0.49110  Biso   1.000  C
  C38      1.0000 0.06990  0.73450  0.50890  Biso   1.000  C
  C39      1.0000 0.06990  0.23450  0.99110  Biso   1.000  C
  C40      1.0000 0.93010  0.76550  0.00890  Biso   1.000  C
  C41      1.0000 0.87080  0.17390  0.40410  Biso   1.000  C
  C42      1.0000 0.12920  0.82610  0.59590  Biso   1.000  C
  C43      1.0000 0.12920  0.32610  0.90410  Biso   1.000  C
  C44      1.0000 0.87080  0.67390  0.09590  Biso   1.000  C
  C45      1.0000 0.96950  0.20480  0.44810  Biso   1.000  C
  C46      1.0000 0.03050  0.79520  0.55190  Biso   1.000  C
  C47      1.0000 0.03050  0.29520  0.94810  Biso   1.000  C
  C48      1.0000 0.96950  0.70480  0.05190  Biso   1.000  C
  C49      1.0000 0.69140  0.26270  0.44720  Biso   1.000  C
  C50      1.0000 0.30860  0.73730  0.55280  Biso   1.000  C
  C51      1.0000 0.30860  0.23730  0.94720  Biso   1.000  C
  C52      1.0000 0.69140  0.76270  0.05280  Biso   1.000  C
  C53      1.0000 0.79200  0.29530  0.49080  Biso   1.000  C
  C54      1.0000 0.20800  0.70470  0.50920  Biso   1.000  C
  C55      1.0000 0.20800  0.20470  0.99080  Biso   1.000  C
  C56      1.0000 0.79200  0.79530  0.00920  Biso   1.000  C
  C57      1.0000 0.03360  0.29600  0.53730  Biso   1.000  C
  C58      1.0000 0.96640  0.70400  0.46270  Biso   1.000  C
  C59      1.0000 0.96640  0.20400  0.03730  Biso   1.000  C
  C60      1.0000 0.03360  0.79600  0.96270  Biso   1.000  C
  C61      1.0000 0.04810  0.22060  0.57570  Biso   1.000  C
  C62      1.0000 0.95190  0.77940  0.42430  Biso   1.000  C
  C63      1.0000 0.95190  0.27940  0.07570  Biso   1.000  C
  C64      1.0000 0.04810  0.72060  0.92430  Biso   1.000  C
  C65      1.0000 0.14390  0.24810  0.61830  Biso   1.000  C
  C66      1.0000 0.85610  0.75190  0.38170  Biso   1.000  C
  C67      1.0000 0.85610  0.25190  0.11830  Biso   1.000  C
  C68      1.0000 0.14390  0.74810  0.88170  Biso   1.000  C
  C69      1.0000 0.22880  0.35200  0.62270  Biso   1.000  C
  C70      1.0000 0.77120  0.64800  0.37730  Biso   1.000  C
  C71      1.0000 0.77120  0.14800  0.12270  Biso   1.000  C
  C72      1.0000 0.22880  0.85200  0.87730  Biso   1.000  C
  C73      1.0000 0.21500  0.42690  0.58480  Biso   1.000  C
  C74      1.0000 0.78500  0.57310  0.41520  Biso   1.000  C
  C75      1.0000 0.78500  0.07310  0.08480  Biso   1.000  C
  C76      1.0000 0.21500  0.92690  0.91520  Biso   1.000  C
  C77      1.0000 0.11840  0.40070  0.54210  Biso   1.000  C
  C78      1.0000 0.88160  0.59930  0.45790  Biso   1.000  C
  C79      1.0000 0.88160  0.09930  0.04210  Biso   1.000  C
  C80      1.0000 0.11840  0.90070  0.95790  Biso   1.000  C
  C81      1.0000 0.52000  0.99980  0.41140  Biso   1.000  C
  C82      1.0000 0.48000  0.00020  0.58860  Biso   1.000  C
  C83      1.0000 0.48000  0.50020  0.91140  Biso   1.000  C
  C84      1.0000 0.52000  0.49980  0.08860  Biso   1.000  C
  C85      1.0000 0.42310  0.90420  0.41630  Biso   1.000  C
  C86      1.0000 0.57690  0.09580  0.58370  Biso   1.000  C
  C87      1.0000 0.57690  0.59580  0.91630  Biso   1.000  C
  C88      1.0000 0.42310  0.40420  0.08370  Biso   1.000  C
  C89      1.0000 0.32230  0.86710  0.37420  Biso   1.000  C
  C90      1.0000 0.67770  0.13290  0.62580  Biso   1.000  C
  C91      1.0000 0.67770  0.63290  0.87420  Biso   1.000  C
  C92      1.0000 0.32230  0.36710  0.12580  Biso   1.000  C
  C93      1.0000 0.32120  0.92540  0.32890  Biso   1.000  C
  C94      1.0000 0.67880  0.07460  0.67110  Biso   1.000  C
  C95      1.0000 0.67880  0.57460  0.82890  Biso   1.000  C
  C96      1.0000 0.32120  0.42540  0.17110  Biso   1.000  C
  C97      1.0000 0.54180  0.25200  0.22090  Biso   1.000  C
  C98      1.0000 0.45820  0.74800  0.77910  Biso   1.000  C
  C99      1.0000 0.45820  0.24800  0.72090  Biso   1.000  C
  C100     1.0000 0.54180  0.75200  0.27910  Biso   1.000  C
  C101     1.0000 0.64080  0.34810  0.21690  Biso   1.000  C
  C102     1.0000 0.35920  0.65190  0.78310  Biso   1.000  C
  C103     1.0000 0.35920  0.15190  0.71690  Biso   1.000  C
  C104     1.0000 0.64080  0.84810  0.28310  Biso   1.000  C
  C105     1.0000 0.73640  0.38670  0.25950  Biso   1.000  C
  C106     1.0000 0.26360  0.61330  0.74050  Biso   1.000  C
  C107     1.0000 0.26360  0.11330  0.75950  Biso   1.000  C
  C108     1.0000 0.73640  0.88670  0.24050  Biso   1.000  C
  C109     1.0000 0.73200  0.32820  0.30530  Biso   1.000  C
  C110     1.0000 0.26800  0.67180  0.69470  Biso   1.000  C
  C111     1.0000 0.26800  0.17180  0.80530  Biso   1.000  C
  C112     1.0000 0.73200  0.82820  0.19470  Biso   1.000  C
  C113     1.0000 0.62620  0.16550  0.35890  Biso   1.000  C
  C114     1.0000 0.37380  0.83450  0.64110  Biso   1.000  C
  C115     1.0000 0.37380  0.33450  0.85890  Biso   1.000  C
  C116     1.0000 0.62620  0.66550  0.14110  Biso   1.000  C
  C117     1.0000 0.42890  0.08790  0.27350  Biso   1.000  C
  C118     1.0000 0.57110  0.91210  0.72650  Biso   1.000  C
  C119     1.0000 0.57110  0.41210  0.77350  Biso   1.000  C
  C120     1.0000 0.42890  0.58790  0.22650  Biso   1.000  C
  C121     1.0000 0.52490  0.06570  0.36430  Biso   1.000  C
  C122     1.0000 0.47510  0.93430  0.63570  Biso   1.000  C
  C123     1.0000 0.47510  0.43430  0.86430  Biso   1.000  C
  C124     1.0000 0.52490  0.56570  0.13570  Biso   1.000  C
  C125     1.0000 0.42380  0.02710  0.32130  Biso   1.000  C
  C126     1.0000 0.57620  0.97290  0.67870  Biso   1.000  C
  C127     1.0000 0.57620  0.47290  0.82130  Biso   1.000  C
  C128     1.0000 0.42380  0.52710  0.17870  Biso   1.000  C
  C129     1.0000 0.62950  0.22710  0.31190  Biso   1.000  C
  C130     1.0000 0.37050  0.77290  0.68810  Biso   1.000  C
  C131     1.0000 0.37050  0.27290  0.81190  Biso   1.000  C
  C132     1.0000 0.62950  0.72710  0.18810  Biso   1.000  C
  C133     1.0000 0.53080  0.18790  0.26850  Biso   1.000  C
  C134     1.0000 0.46920  0.81210  0.73150  Biso   1.000  C
  C135     1.0000 0.46920  0.31210  0.76850  Biso   1.000  C
  C136     1.0000 0.53080  0.68790  0.23150  Biso   1.000  C
  C137     1.0000 0.32710  0.04490  0.22850  Biso   1.000  C
  C138     1.0000 0.67290  0.95510  0.77150  Biso   1.000  C
  C139     1.0000 0.67290  0.45510  0.72850  Biso   1.000  C
  C140     1.0000 0.32710  0.54490  0.27150  Biso   1.000  C
  C141     1.0000 0.35000  0.95800  0.19760  Biso   1.000  C
  C142     1.0000 0.65000  0.04200  0.80240  Biso   1.000  C
  C143     1.0000 0.65000  0.54200  0.69760  Biso   1.000  C
  C144     1.0000 0.35000  0.45800  0.30240  Biso   1.000  C
  C145     1.0000 0.25270  0.91550  0.15680  Biso   1.000  C
  C146     1.0000 0.74730  0.08450  0.84320  Biso   1.000  C
  C147     1.0000 0.74730  0.58450  0.65680  Biso   1.000  C
  C148     1.0000 0.25270  0.41550  0.34320  Biso   1.000  C
  C149     1.0000 0.13330  0.95950  0.14570  Biso   1.000  C
  C150     1.0000 0.86670  0.04050  0.85430  Biso   1.000  C
  C151     1.0000 0.86670  0.54050  0.64570  Biso   1.000  C
  C152     1.0000 0.13330  0.45950  0.35430  Biso   1.000  C
  C153     1.0000 0.10910  0.04610  0.17490  Biso   1.000  C
  C154     1.0000 0.89090  0.95390  0.82510  Biso   1.000  C
  C155     1.0000 0.89090  0.45390  0.67490  Biso   1.000  C
  C156     1.0000 0.10910  0.54610  0.32510  Biso   1.000  C
  C157     1.0000 0.20700  0.08920  0.21630  Biso   1.000  C
  C158     1.0000 0.79300  0.91080  0.78370  Biso   1.000  C
  C159     1.0000 0.79300  0.41080  0.71630  Biso   1.000  C
  C160     1.0000 0.20700  0.58920  0.28370  Biso   1.000  C
