# generated using pymatgen
data_H9C14
_symmetry_space_group_name_H-M   'P 1'
_cell_length_a   9.80490000
_cell_length_b   7.82910000
_cell_length_c   22.41590000
_cell_angle_alpha   90.00000000
_cell_angle_beta   91.39220000
_cell_angle_gamma   90.00000000
_symmetry_Int_Tables_number   1
_chemical_formula_structural   H9C14
_chemical_formula_sum   'H72 C112'
_cell_volume   1720.21594802
_cell_formula_units_Z   8
loop_
 _symmetry_equiv_pos_site_id
 _symmetry_equiv_pos_as_xyz
  1  'x, y, z'
loop_
 _atom_site_type_symbol
 _atom_site_label
 _atom_site_symmetry_multiplicity
 _atom_site_fract_x
 _atom_site_fract_y
 _atom_site_fract_z
 _atom_site_occupancy
  C  C0  1  0.62446000  0.22356000  0.02038000  1
  C  C1  1  0.87554000  0.72356000  0.47962000  1
  C  C2  1  0.37554000  0.77644000  0.97962000  1
  C  C3  1  0.12446000  0.27644000  0.52038000  1
  C  C4  1  0.56948000  0.31858000  0.06689000  1
  C  C5  1  0.93052000  0.81858000  0.43311000  1
  C  C6  1  0.43052000  0.68142000  0.93311000  1
  C  C7  1  0.06948000  0.18142000  0.56689000  1
  C  C8  1  0.54727000  0.18420000  0.96882000  1
  C  C9  1  0.95273000  0.68420000  0.53118000  1
  C  C10  1  0.45273000  0.81580000  0.03118000  1
  C  C11  1  0.04727000  0.31580000  0.46882000  1
  C  C12  1  0.41334000  0.23761000  0.96232000  1
  C  C13  1  0.08666000  0.73761000  0.53768000  1
  C  C14  1  0.58666000  0.76239000  0.03768000  1
  C  C15  1  0.91334000  0.26239000  0.46232000  1
  C  C16  1  0.35194000  0.33225000  0.00840000  1
  C  C17  1  0.14806000  0.83225000  0.49160000  1
  C  C18  1  0.64806000  0.66775000  0.99160000  1
  C  C19  1  0.85194000  0.16775000  0.50840000  1
  C  C20  1  0.21542000  0.39265000  0.00255000  1
  C  C21  1  0.28458000  0.89265000  0.49745000  1
  C  C22  1  0.78458000  0.60735000  0.99745000  1
  C  C23  1  0.71542000  0.10735000  0.50255000  1
  C  C24  1  0.15760000  0.48741000  0.04741000  1
  C  C25  1  0.34240000  0.98741000  0.45259000  1
  C  C26  1  0.84240000  0.51259000  0.95259000  1
  C  C27  1  0.65760000  0.01259000  0.54741000  1
  C  C28  1  0.23373000  0.52697000  0.09941000  1
  C  C29  1  0.26627000  0.02697000  0.40059000  1
  C  C30  1  0.76627000  0.47303000  0.90059000  1
  C  C31  1  0.73373000  0.97303000  0.59941000  1
  C  C32  1  0.36860000  0.47233000  0.10703000  1
  C  C33  1  0.13140000  0.97233000  0.39297000  1
  C  C34  1  0.63140000  0.52767000  0.89297000  1
  C  C35  1  0.86860000  0.02767000  0.60703000  1
  C  C36  1  0.44657000  0.52039000  0.15931000  1
  C  C37  1  0.05343000  0.02039000  0.34069000  1
  C  C38  1  0.55343000  0.47961000  0.84069000  1
  C  C39  1  0.94657000  0.97961000  0.65931000  1
  C  C40  1  0.58040000  0.47290000  0.16563000  1
  C  C41  1  0.91960000  0.97290000  0.33437000  1
  C  C42  1  0.41960000  0.52710000  0.83437000  1
  C  C43  1  0.08040000  0.02710000  0.66563000  1
  C  C44  1  0.67953000  0.50701000  0.21219000  1
  C  C45  1  0.82047000  0.00701000  0.28781000  1
  C  C46  1  0.32047000  0.49299000  0.78781000  1
  C  C47  1  0.17953000  0.99299000  0.71219000  1
  C  C48  1  0.80169000  0.43161000  0.19619000  1
  C  C49  1  0.69831000  0.93161000  0.30381000  1
  C  C50  1  0.19831000  0.56839000  0.80381000  1
  C  C51  1  0.30169000  0.06839000  0.69619000  1
  C  C52  1  0.78057000  0.34787000  0.13822000  1
  C  C53  1  0.71943000  0.84787000  0.36178000  1
  C  C54  1  0.21943000  0.65213000  0.86178000  1
  C  C55  1  0.28057000  0.15213000  0.63822000  1
  C  C56  1  0.43014000  0.37242000  0.06117000  1
  C  C57  1  0.06986000  0.87242000  0.43883000  1
  C  C58  1  0.56986000  0.62758000  0.93883000  1
  C  C59  1  0.93014000  0.12758000  0.56117000  1
  C  C60  1  0.64673000  0.37104000  0.11955000  1
  C  C61  1  0.85327000  0.87104000  0.38045000  1
  C  C62  1  0.35327000  0.62896000  0.88045000  1
  C  C63  1  0.14673000  0.12896000  0.61955000  1
  C  C64  1  0.92992000  0.43451000  0.23040000  1
  C  C65  1  0.57008000  0.93451000  0.26960000  1
  C  C66  1  0.07008000  0.56549000  0.76960000  1
  C  C67  1  0.42992000  0.06549000  0.73040000  1
  C  C68  1  0.94100000  0.51669000  0.28643000  1
  C  C69  1  0.55900000  0.01669000  0.21357000  1
  C  C70  1  0.05900000  0.48331000  0.71357000  1
  C  C71  1  0.44100000  0.98331000  0.78643000  1
  C  C72  1  0.06338000  0.52111000  0.31863000  1
  C  C73  1  0.43662000  0.02111000  0.18137000  1
  C  C74  1  0.93662000  0.47889000  0.68137000  1
  C  C75  1  0.56338000  0.97889000  0.81863000  1
  C  C76  1  0.18303000  0.44259000  0.29761000  1
  C  C77  1  0.31697000  0.94259000  0.20239000  1
  C  C78  1  0.81697000  0.55741000  0.70239000  1
  C  C79  1  0.68303000  0.05741000  0.79761000  1
  C  C80  1  0.17107000  0.35937000  0.24207000  1
  C  C81  1  0.32893000  0.85937000  0.25793000  1
  C  C82  1  0.82893000  0.64063000  0.75793000  1
  C  C83  1  0.67107000  0.14063000  0.74207000  1
  C  C84  1  0.04863000  0.35567000  0.20940000  1
  C  C85  1  0.45137000  0.85567000  0.29060000  1
  C  C86  1  0.95137000  0.64433000  0.79060000  1
  C  C87  1  0.54863000  0.14433000  0.70940000  1
  C  C88  1  0.31285000  0.44504000  0.33296000  1
  C  C89  1  0.18715000  0.94504000  0.16704000  1
  C  C90  1  0.68715000  0.55496000  0.66704000  1
  C  C91  1  0.81285000  0.05496000  0.83296000  1
  C  C92  1  0.32397000  0.53407000  0.38761000  1
  C  C93  1  0.17603000  0.03407000  0.11239000  1
  C  C94  1  0.67603000  0.46593000  0.61239000  1
  C  C95  1  0.82397000  0.96593000  0.88761000  1
  C  C96  1  0.44453000  0.53316000  0.42176000  1
  C  C97  1  0.05547000  0.03316000  0.07824000  1
  C  C98  1  0.55547000  0.46684000  0.57824000  1
  C  C99  1  0.94453000  0.96684000  0.92176000  1
  C  C100  1  0.55874000  0.44396000  0.40238000  1
  C  C101  1  0.94126000  0.94396000  0.09762000  1
  C  C102  1  0.44126000  0.55604000  0.59762000  1
  C  C103  1  0.05874000  0.05604000  0.90238000  1
  C  C104  1  0.55075000  0.35648000  0.34811000  1
  C  C105  1  0.94925000  0.85648000  0.15189000  1
  C  C106  1  0.44925000  0.64352000  0.65189000  1
  C  C107  1  0.05075000  0.14352000  0.84811000  1
  C  C108  1  0.42981000  0.35736000  0.31399000  1
  C  C109  1  0.07019000  0.85736000  0.18601000  1
  C  C110  1  0.57019000  0.64264000  0.68601000  1
  C  C111  1  0.92981000  0.14264000  0.81399000  1
  H  H112  1  0.04625323  0.30307512  0.17520122  1
  H  H113  1  0.24172160  0.30851722  0.22744471  1
  H  H114  1  0.06512905  0.57424768  0.35272679  1
  H  H115  1  0.42728284  0.30224499  0.28027968  1
  H  H116  1  0.25457290  0.59110193  0.40060927  1
  H  H117  1  0.62142236  0.30119350  0.33550223  1
  H  H118  1  0.44851919  0.58862539  0.45538852  1
  H  H119  1  0.63387971  0.44290239  0.42383356  1
  H  H120  1  0.70843593  0.18819570  0.02358858  1
  H  H121  1  0.83975531  0.29173532  0.11758495  1
  H  H122  1  0.19658808  0.58653365  0.12747194  1
  H  H123  1  0.41175372  0.57994416  0.18795583  1
  H  H124  1  0.66748713  0.56427505  0.24490392  1
  H  H125  1  0.07365211  0.52200443  0.04293529  1
  H  H126  1  0.87028830  0.56609289  0.30156980  1
  H  H127  1  0.58322876  0.12540736  0.94026340  1
  H  H128  1  0.36824897  0.21197780  0.92963164  1
  H  H129  1  0.16597185  0.37106120  0.97068830  1
  H  H130  1  0.08824628  0.07994416  0.31204417  1
  H  H131  1  0.30341192  0.08653365  0.37252806  1
  H  H132  1  0.42634789  0.02200443  0.45706471  1
  H  H133  1  0.13175103  0.71197780  0.57036836  1
  H  H134  1  0.33402815  0.87106120  0.52931170  1
  H  H135  1  0.83251287  0.06427505  0.25509608  1
  H  H136  1  0.62971170  0.06609289  0.19843020  1
  H  H137  1  0.43487095  0.07424768  0.14727321  1
  H  H138  1  0.24542710  0.09110193  0.09939073  1
  H  H139  1  0.05148081  0.08862539  0.04461148  1
  H  H140  1  0.79156407  0.68819570  0.47641142  1
  H  H141  1  0.91677124  0.62540736  0.55973660  1
  H  H142  1  0.66024469  0.79173532  0.38241505  1
  H  H143  1  0.45374677  0.80307512  0.32479878  1
  H  H144  1  0.25827840  0.80851722  0.27255529  1
  H  H145  1  0.07271716  0.80224499  0.21972032  1
  H  H146  1  0.87857764  0.80119350  0.16449777  1
  H  H147  1  0.86612029  0.94290239  0.07616644  1
  H  H148  1  0.41677124  0.87459264  0.05973660  1
  H  H149  1  0.63175103  0.78802220  0.07036836  1
  H  H150  1  0.83402815  0.62893880  0.02931170  1
  H  H151  1  0.29156407  0.81180430  0.97641142  1
  H  H152  1  0.16024469  0.70826468  0.88241505  1
  H  H153  1  0.33251287  0.43572495  0.75509608  1
  H  H154  1  0.58824628  0.42005584  0.81204417  1
  H  H155  1  0.80341192  0.41346635  0.87252806  1
  H  H156  1  0.92634789  0.47799557  0.95706471  1
  H  H157  1  0.12971170  0.43390711  0.69843020  1
  H  H158  1  0.95374677  0.69692488  0.82479878  1
  H  H159  1  0.93487095  0.42575232  0.64727321  1
  H  H160  1  0.75827840  0.69148278  0.77255529  1
  H  H161  1  0.74542710  0.40889807  0.59939073  1
  H  H162  1  0.57271716  0.69775501  0.71972032  1
  H  H163  1  0.55148081  0.41137461  0.54461148  1
  H  H164  1  0.37857764  0.69880650  0.66449777  1
  H  H165  1  0.36612029  0.55709761  0.57616644  1
  H  H166  1  0.12142236  0.19880650  0.83550223  1
  H  H167  1  0.13387971  0.05709761  0.92383356  1
  H  H168  1  0.20843593  0.31180430  0.52358858  1
  H  H169  1  0.08322876  0.37459264  0.44026340  1
  H  H170  1  0.33975531  0.20826468  0.61758495  1
  H  H171  1  0.54625323  0.19692488  0.67520122  1
  H  H172  1  0.74172160  0.19148278  0.72744471  1
  H  H173  1  0.92728284  0.19775501  0.78027968  1
  H  H174  1  0.16748713  0.93572495  0.74490392  1
  H  H175  1  0.37028830  0.93390711  0.80156980  1
  H  H176  1  0.56512905  0.92575232  0.85272679  1
  H  H177  1  0.75457290  0.90889807  0.90060927  1
  H  H178  1  0.94851919  0.91137461  0.95538852  1
  H  H179  1  0.86824897  0.28802220  0.42963164  1
  H  H180  1  0.66597185  0.12893880  0.47068830  1
  H  H181  1  0.69658808  0.91346635  0.62747194  1
  H  H182  1  0.91175372  0.92005584  0.68795583  1
  H  H183  1  0.57365211  0.97799557  0.54293529  1
