data_image0
_cell_length_a       5.03
_cell_length_b       7.32
_cell_length_c       12.56
_cell_angle_alpha    96.23
_cell_angle_beta     90
_cell_angle_gamma    90

_symmetry_space_group_name_H-M    "P 1"
_symmetry_int_tables_number       1

loop_
  _symmetry_equiv_pos_as_xyz
  'x, y, z'

loop_
  _atom_site_label
  _atom_site_occupancy
  _atom_site_fract_x
  _atom_site_fract_y
  _atom_site_fract_z
  _atom_site_thermal_displace_type
  _atom_site_B_iso_or_equiv
  _atom_site_type_symbol
  H1       1.0000 0.82619  0.57837  0.09760  Biso   1.000  H
  H2       1.0000 0.17381  0.42163  0.90240  Biso   1.000  H
  H3       1.0000 0.32620  0.92163  0.40240  Biso   1.000  H
  H4       1.0000 0.67381  0.07837  0.59760  Biso   1.000  H
  H5       1.0000 0.16537  0.73783  0.21281  Biso   1.000  H
  H6       1.0000 0.83463  0.26217  0.78719  Biso   1.000  H
  H7       1.0000 0.66537  0.76218  0.28719  Biso   1.000  H
  H8       1.0000 0.33463  0.23783  0.71281  Biso   1.000  H
  H9       1.0000 0.60365  0.28612  0.06154  Biso   1.000  H
  H10      1.0000 0.39635  0.71388  0.93846  Biso   1.000  H
  H11      1.0000 0.10365  0.21388  0.43846  Biso   1.000  H
  H12      1.0000 0.89635  0.78612  0.56154  Biso   1.000  H
  H13      1.0000 0.36107  0.40247  0.14458  Biso   1.000  H
  H14      1.0000 0.63893  0.59753  0.85542  Biso   1.000  H
  H15      1.0000 0.86107  0.09753  0.35542  Biso   1.000  H
  H16      1.0000 0.13893  0.90247  0.64458  Biso   1.000  H
  H17      1.0000 0.60525  0.04134  0.17156  Biso   1.000  H
  H18      1.0000 0.39475  0.95866  0.82844  Biso   1.000  H
  H19      1.0000 0.10525  0.45866  0.32844  Biso   1.000  H
  H20      1.0000 0.89475  0.54134  0.67156  Biso   1.000  H
  H21      1.0000 0.36490  0.15773  0.25579  Biso   1.000  H
  H22      1.0000 0.63510  0.84227  0.74421  Biso   1.000  H
  H23      1.0000 0.86490  0.34227  0.24421  Biso   1.000  H
  H24      1.0000 0.13510  0.65773  0.75579  Biso   1.000  H
  C1       1.0000 0.19700  0.97200  0.12280  Biso   1.000  C
  C2       1.0000 0.80300  0.02800  0.87720  Biso   1.000  C
  C3       1.0000 0.69700  0.52800  0.37720  Biso   1.000  C
  C4       1.0000 0.30300  0.47200  0.62280  Biso   1.000  C
  C5       1.0000 0.40780  0.27050  0.09800  Biso   1.000  C
  C6       1.0000 0.59220  0.72950  0.90200  Biso   1.000  C
  C7       1.0000 0.90780  0.22950  0.40200  Biso   1.000  C
  C8       1.0000 0.09220  0.77050  0.59800  Biso   1.000  C
  C9       1.0000 0.40930  0.10730  0.17220  Biso   1.000  C
  C10      1.0000 0.59070  0.89270  0.82780  Biso   1.000  C
  C11      1.0000 0.90930  0.39270  0.32780  Biso   1.000  C
  C12      1.0000 0.09070  0.60730  0.67220  Biso   1.000  C
  C13      1.0000 0.09600  0.80400  0.14430  Biso   1.000  C
  C14      1.0000 0.90400  0.19600  0.85570  Biso   1.000  C
  C15      1.0000 0.59600  0.69600  0.35570  Biso   1.000  C
  C16      1.0000 0.40400  0.30400  0.64430  Biso   1.000  C
  C17      1.0000 0.89800  0.71000  0.07610  Biso   1.000  C
  C18      1.0000 0.10200  0.29000  0.92390  Biso   1.000  C
  C19      1.0000 0.39800  0.79000  0.42390  Biso   1.000  C
  C20      1.0000 0.60200  0.21000  0.57610  Biso   1.000  C
  C21      1.0000 0.19700  0.21740  0.01120  Biso   1.000  C
  C22      1.0000 0.80300  0.78260  0.98880  Biso   1.000  C
  C23      1.0000 0.69700  0.28260  0.48880  Biso   1.000  C
  C24      1.0000 0.30300  0.71740  0.51120  Biso   1.000  C
  C25      1.0000 0.09080  0.04500  0.03210  Biso   1.000  C
  C26      1.0000 0.90920  0.95500  0.96790  Biso   1.000  C
  C27      1.0000 0.59080  0.45500  0.46790  Biso   1.000  C
  C28      1.0000 0.40920  0.54500  0.53210  Biso   1.000  C
