data_image0
_cell_length_a       10.63
_cell_length_b       11.145
_cell_length_c       19.235
_cell_angle_alpha    100.46
_cell_angle_beta     90
_cell_angle_gamma    90

_symmetry_space_group_name_H-M    "P 1"
_symmetry_int_tables_number       1

loop_
  _symmetry_equiv_pos_as_xyz
  'x, y, z'

loop_
  _atom_site_label
  _atom_site_occupancy
  _atom_site_fract_x
  _atom_site_fract_y
  _atom_site_fract_z
  _atom_site_thermal_displace_type
  _atom_site_B_iso_or_equiv
  _atom_site_type_symbol
  H1       1.0000 0.04231  0.70674  0.49959  Biso   1.000  H
  H2       1.0000 0.95769  0.29326  0.50041  Biso   1.000  H
  H3       1.0000 0.54231  0.79326  0.50041  Biso   1.000  H
  H4       1.0000 0.45769  0.20674  0.49959  Biso   1.000  H
  H5       1.0000 0.87838  0.61092  0.56463  Biso   1.000  H
  H6       1.0000 0.12162  0.38908  0.43537  Biso   1.000  H
  H7       1.0000 0.37838  0.88908  0.43537  Biso   1.000  H
  H8       1.0000 0.62162  0.11092  0.56463  Biso   1.000  H
  H9       1.0000 0.87718  0.64832  0.69318  Biso   1.000  H
  H10      1.0000 0.12282  0.35168  0.30682  Biso   1.000  H
  H11      1.0000 0.37718  0.85168  0.30682  Biso   1.000  H
  H12      1.0000 0.62282  0.14832  0.69318  Biso   1.000  H
  H13      1.0000 0.87214  0.68480  0.79490  Biso   1.000  H
  H14      1.0000 0.12786  0.31520  0.20510  Biso   1.000  H
  H15      1.0000 0.37214  0.81520  0.20510  Biso   1.000  H
  H16      1.0000 0.62786  0.18480  0.79490  Biso   1.000  H
  H17      1.0000 0.87266  0.71865  0.92084  Biso   1.000  H
  H18      1.0000 0.12734  0.28135  0.07916  Biso   1.000  H
  H19      1.0000 0.37266  0.78135  0.07916  Biso   1.000  H
  H20      1.0000 0.62734  0.21865  0.92084  Biso   1.000  H
  H21      1.0000 0.87278  0.74761  0.02269  Biso   1.000  H
  H22      1.0000 0.12722  0.25239  0.97731  Biso   1.000  H
  H23      1.0000 0.37278  0.75239  0.97731  Biso   1.000  H
  H24      1.0000 0.62722  0.24761  0.02269  Biso   1.000  H
  H25      1.0000 0.87326  0.78060  0.14938  Biso   1.000  H
  H26      1.0000 0.12674  0.21940  0.85062  Biso   1.000  H
  H27      1.0000 0.37326  0.71940  0.85062  Biso   1.000  H
  H28      1.0000 0.62674  0.28060  0.14938  Biso   1.000  H
  H29      1.0000 0.87476  0.80525  0.25182  Biso   1.000  H
  H30      1.0000 0.12524  0.19475  0.74818  Biso   1.000  H
  H31      1.0000 0.37476  0.69475  0.74818  Biso   1.000  H
  H32      1.0000 0.62524  0.30525  0.25182  Biso   1.000  H
  H33      1.0000 0.87720  0.83936  0.38019  Biso   1.000  H
  H34      1.0000 0.12280  0.16064  0.61981  Biso   1.000  H
  H35      1.0000 0.37720  0.66064  0.61981  Biso   1.000  H
  H36      1.0000 0.62280  0.33936  0.38019  Biso   1.000  H
  H37      1.0000 0.04723  0.96181  0.44749  Biso   1.000  H
  H38      1.0000 0.95277  0.03819  0.55251  Biso   1.000  H
  H39      1.0000 0.54723  0.53819  0.55251  Biso   1.000  H
  H40      1.0000 0.45277  0.46181  0.44749  Biso   1.000  H
  H41      1.0000 0.23379  0.08787  0.44922  Biso   1.000  H
  H42      1.0000 0.76621  0.91213  0.55078  Biso   1.000  H
  H43      1.0000 0.73379  0.41213  0.55078  Biso   1.000  H
  H44      1.0000 0.26621  0.58787  0.44922  Biso   1.000  H
  H45      1.0000 0.40086  0.18130  0.38488  Biso   1.000  H
  H46      1.0000 0.59914  0.81870  0.61512  Biso   1.000  H
  H47      1.0000 0.90086  0.31870  0.61512  Biso   1.000  H
  H48      1.0000 0.09914  0.68130  0.38488  Biso   1.000  H
  H49      1.0000 0.40064  0.14756  0.25647  Biso   1.000  H
  H50      1.0000 0.59936  0.85244  0.74353  Biso   1.000  H
  H51      1.0000 0.90064  0.35244  0.74353  Biso   1.000  H
  H52      1.0000 0.09936  0.64756  0.25647  Biso   1.000  H
  H53      1.0000 0.39997  0.11884  0.15346  Biso   1.000  H
  H54      1.0000 0.60003  0.88116  0.84654  Biso   1.000  H
  H55      1.0000 0.89997  0.38116  0.84654  Biso   1.000  H
  H56      1.0000 0.10003  0.61884  0.15346  Biso   1.000  H
  H57      1.0000 0.40075  0.08611  0.02784  Biso   1.000  H
  H58      1.0000 0.59925  0.91389  0.97216  Biso   1.000  H
  H59      1.0000 0.90075  0.41389  0.97216  Biso   1.000  H
  H60      1.0000 0.09925  0.58611  0.02784  Biso   1.000  H
  H61      1.0000 0.40019  0.05726  0.92492  Biso   1.000  H
  H62      1.0000 0.59981  0.94274  0.07508  Biso   1.000  H
  H63      1.0000 0.90019  0.44274  0.07508  Biso   1.000  H
  H64      1.0000 0.09981  0.55726  0.92492  Biso   1.000  H
  H65      1.0000 0.39882  0.02375  0.79922  Biso   1.000  H
  H66      1.0000 0.60118  0.97625  0.20078  Biso   1.000  H
  H67      1.0000 0.89882  0.47625  0.20078  Biso   1.000  H
  H68      1.0000 0.10118  0.52375  0.79922  Biso   1.000  H
  H69      1.0000 0.39788  0.99760  0.69635  Biso   1.000  H
  H70      1.0000 0.60212  0.00240  0.30365  Biso   1.000  H
  H71      1.0000 0.89788  0.50240  0.30365  Biso   1.000  H
  H72      1.0000 0.10212  0.49760  0.69635  Biso   1.000  H
  H73      1.0000 0.39335  0.96386  0.56802  Biso   1.000  H
  H74      1.0000 0.60665  0.03614  0.43198  Biso   1.000  H
  H75      1.0000 0.89335  0.53614  0.43198  Biso   1.000  H
  H76      1.0000 0.10665  0.46386  0.56802  Biso   1.000  H
  H77      1.0000 0.22886  0.83233  0.50069  Biso   1.000  H
  H78      1.0000 0.77114  0.16767  0.49931  Biso   1.000  H
  H79      1.0000 0.72886  0.66767  0.49931  Biso   1.000  H
  H80      1.0000 0.27114  0.33233  0.50069  Biso   1.000  H
  C1       1.0000 0.04255  0.72063  0.55716  Biso   1.000  C
  C2       1.0000 0.95745  0.27937  0.44284  Biso   1.000  C
  C3       1.0000 0.54255  0.77937  0.44284  Biso   1.000  C
  C4       1.0000 0.45745  0.22063  0.55716  Biso   1.000  C
  C5       1.0000 0.94995  0.80005  0.05013  Biso   1.000  C
  C6       1.0000 0.05005  0.19995  0.94987  Biso   1.000  C
  C7       1.0000 0.44995  0.69995  0.94987  Biso   1.000  C
  C8       1.0000 0.55005  0.30005  0.05013  Biso   1.000  C
  C9       1.0000 0.95020  0.81895  0.12334  Biso   1.000  C
  C10      1.0000 0.04980  0.18105  0.87666  Biso   1.000  C
  C11      1.0000 0.45020  0.68105  0.87666  Biso   1.000  C
  C12      1.0000 0.54980  0.31895  0.12334  Biso   1.000  C
  C13      1.0000 0.04301  0.88668  0.16266  Biso   1.000  C
  C14      1.0000 0.95699  0.11332  0.83734  Biso   1.000  C
  C15      1.0000 0.54301  0.61332  0.83734  Biso   1.000  C
  C16      1.0000 0.45699  0.38668  0.16266  Biso   1.000  C
  C17      1.0000 0.04258  0.90644  0.24039  Biso   1.000  C
  C18      1.0000 0.95742  0.09356  0.75961  Biso   1.000  C
  C19      1.0000 0.54258  0.59356  0.75961  Biso   1.000  C
  C20      1.0000 0.45742  0.40644  0.24039  Biso   1.000  C
  C21      1.0000 0.95152  0.85890  0.27897  Biso   1.000  C
  C22      1.0000 0.04848  0.14110  0.72103  Biso   1.000  C
  C23      1.0000 0.45152  0.64110  0.72103  Biso   1.000  C
  C24      1.0000 0.54848  0.35890  0.27897  Biso   1.000  C
  C25      1.0000 0.95230  0.87821  0.35281  Biso   1.000  C
  C26      1.0000 0.04770  0.12179  0.64719  Biso   1.000  C
  C27      1.0000 0.45230  0.62179  0.64719  Biso   1.000  C
  C28      1.0000 0.54770  0.37821  0.35281  Biso   1.000  C
  C29      1.0000 0.04539  0.94565  0.38986  Biso   1.000  C
  C30      1.0000 0.95461  0.05435  0.61014  Biso   1.000  C
  C31      1.0000 0.54539  0.55435  0.61014  Biso   1.000  C
  C32      1.0000 0.45461  0.44565  0.38986  Biso   1.000  C
  C33      1.0000 0.14043  0.99887  0.35375  Biso   1.000  C
  C34      1.0000 0.85957  0.00113  0.64625  Biso   1.000  C
  C35      1.0000 0.64043  0.50113  0.64625  Biso   1.000  C
  C36      1.0000 0.35957  0.49887  0.35375  Biso   1.000  C
  C37      1.0000 0.23597  0.07269  0.39155  Biso   1.000  C
  C38      1.0000 0.76403  0.92731  0.60845  Biso   1.000  C
  C39      1.0000 0.73597  0.42731  0.60845  Biso   1.000  C
  C40      1.0000 0.26403  0.57269  0.39155  Biso   1.000  C
  C41      1.0000 0.32752  0.12435  0.35648  Biso   1.000  C
  C42      1.0000 0.67248  0.87565  0.64352  Biso   1.000  C
  C43      1.0000 0.82752  0.37565  0.64352  Biso   1.000  C
  C44      1.0000 0.17248  0.62435  0.35648  Biso   1.000  C
  C45      1.0000 0.95125  0.66866  0.59279  Biso   1.000  C
  C46      1.0000 0.04875  0.33134  0.40721  Biso   1.000  C
  C47      1.0000 0.45125  0.83134  0.40721  Biso   1.000  C
  C48      1.0000 0.54875  0.16866  0.59279  Biso   1.000  C
  C49      1.0000 0.32683  0.10457  0.28255  Biso   1.000  C
  C50      1.0000 0.67317  0.89543  0.71745  Biso   1.000  C
  C51      1.0000 0.82683  0.39543  0.71745  Biso   1.000  C
  C52      1.0000 0.17317  0.60457  0.28255  Biso   1.000  C
  C53      1.0000 0.23665  0.03401  0.24290  Biso   1.000  C
  C54      1.0000 0.76335  0.96599  0.75710  Biso   1.000  C
  C55      1.0000 0.73665  0.46599  0.75710  Biso   1.000  C
  C56      1.0000 0.26335  0.53401  0.24290  Biso   1.000  C
  C57      1.0000 0.23628  0.01263  0.16544  Biso   1.000  C
  C58      1.0000 0.76372  0.98737  0.83456  Biso   1.000  C
  C59      1.0000 0.73628  0.48737  0.83456  Biso   1.000  C
  C60      1.0000 0.26372  0.51263  0.16544  Biso   1.000  C
  C61      1.0000 0.32560  0.06137  0.12640  Biso   1.000  C
  C62      1.0000 0.67440  0.93863  0.87360  Biso   1.000  C
  C63      1.0000 0.82560  0.43863  0.87360  Biso   1.000  C
  C64      1.0000 0.17440  0.56137  0.12640  Biso   1.000  C
  C65      1.0000 0.32668  0.04257  0.05328  Biso   1.000  C
  C66      1.0000 0.67332  0.95743  0.94672  Biso   1.000  C
  C67      1.0000 0.82668  0.45743  0.94672  Biso   1.000  C
  C68      1.0000 0.17332  0.54257  0.05328  Biso   1.000  C
  C69      1.0000 0.23515  0.97101  0.01350  Biso   1.000  C
  C70      1.0000 0.76485  0.02899  0.98650  Biso   1.000  C
  C71      1.0000 0.73515  0.52899  0.98650  Biso   1.000  C
  C72      1.0000 0.26485  0.47101  0.01350  Biso   1.000  C
  C73      1.0000 0.23595  0.94974  0.93599  Biso   1.000  C
  C74      1.0000 0.76405  0.05026  0.06401  Biso   1.000  C
  C75      1.0000 0.73595  0.55026  0.06401  Biso   1.000  C
  C76      1.0000 0.26405  0.44974  0.93599  Biso   1.000  C
  C77      1.0000 0.32573  0.00004  0.89800  Biso   1.000  C
  C78      1.0000 0.67427  0.99996  0.10200  Biso   1.000  C
  C79      1.0000 0.82573  0.49996  0.10200  Biso   1.000  C
  C80      1.0000 0.17427  0.50004  0.89800  Biso   1.000  C
  C81      1.0000 0.32488  0.98018  0.82492  Biso   1.000  C
  C82      1.0000 0.67512  0.01982  0.17508  Biso   1.000  C
  C83      1.0000 0.82488  0.51982  0.17508  Biso   1.000  C
  C84      1.0000 0.17512  0.48018  0.82492  Biso   1.000  C
  C85      1.0000 0.23468  0.90996  0.78491  Biso   1.000  C
  C86      1.0000 0.76532  0.09004  0.21509  Biso   1.000  C
  C87      1.0000 0.73468  0.59004  0.21509  Biso   1.000  C
  C88      1.0000 0.26532  0.40996  0.78491  Biso   1.000  C
  C89      1.0000 0.95178  0.68956  0.66689  Biso   1.000  C
  C90      1.0000 0.04822  0.31044  0.33311  Biso   1.000  C
  C91      1.0000 0.45178  0.81044  0.33311  Biso   1.000  C
  C92      1.0000 0.54822  0.18956  0.66689  Biso   1.000  C
  C93      1.0000 0.23334  0.88977  0.70734  Biso   1.000  C
  C94      1.0000 0.76666  0.11023  0.29266  Biso   1.000  C
  C95      1.0000 0.73334  0.61023  0.29266  Biso   1.000  C
  C96      1.0000 0.26666  0.38977  0.70734  Biso   1.000  C
  C97      1.0000 0.32370  0.94010  0.66942  Biso   1.000  C
  C98      1.0000 0.67630  0.05990  0.33058  Biso   1.000  C
  C99      1.0000 0.82370  0.55990  0.33058  Biso   1.000  C
  C100     1.0000 0.17630  0.44010  0.66942  Biso   1.000  C
  C101     1.0000 0.32140  0.92034  0.59524  Biso   1.000  C
  C102     1.0000 0.67860  0.07966  0.40476  Biso   1.000  C
  C103     1.0000 0.82140  0.57966  0.40476  Biso   1.000  C
  C104     1.0000 0.17860  0.42034  0.59524  Biso   1.000  C
  C105     1.0000 0.23131  0.84885  0.55828  Biso   1.000  C
  C106     1.0000 0.76869  0.15115  0.44172  Biso   1.000  C
  C107     1.0000 0.73131  0.65115  0.44172  Biso   1.000  C
  C108     1.0000 0.26869  0.34885  0.55828  Biso   1.000  C
  C109     1.0000 0.13724  0.79469  0.59471  Biso   1.000  C
  C110     1.0000 0.86276  0.20531  0.40529  Biso   1.000  C
  C111     1.0000 0.63724  0.70531  0.40529  Biso   1.000  C
  C112     1.0000 0.36276  0.29469  0.59471  Biso   1.000  C
  C113     1.0000 0.13778  0.81490  0.66948  Biso   1.000  C
  C114     1.0000 0.86222  0.18510  0.33052  Biso   1.000  C
  C115     1.0000 0.63778  0.68510  0.33052  Biso   1.000  C
  C116     1.0000 0.36222  0.31490  0.66948  Biso   1.000  C
  C117     1.0000 0.13951  0.85621  0.82211  Biso   1.000  C
  C118     1.0000 0.86049  0.14379  0.17789  Biso   1.000  C
  C119     1.0000 0.63951  0.64379  0.17789  Biso   1.000  C
  C120     1.0000 0.36049  0.35621  0.82211  Biso   1.000  C
  C121     1.0000 0.13919  0.87685  0.89770  Biso   1.000  C
  C122     1.0000 0.86081  0.12315  0.10230  Biso   1.000  C
  C123     1.0000 0.63919  0.62315  0.10230  Biso   1.000  C
  C124     1.0000 0.36081  0.37685  0.89770  Biso   1.000  C
  C125     1.0000 0.14040  0.91801  0.05087  Biso   1.000  C
  C126     1.0000 0.85960  0.08199  0.94913  Biso   1.000  C
  C127     1.0000 0.64040  0.58199  0.94913  Biso   1.000  C
  C128     1.0000 0.35960  0.41801  0.05087  Biso   1.000  C
  C129     1.0000 0.14084  0.93875  0.12656  Biso   1.000  C
  C130     1.0000 0.85916  0.06125  0.87344  Biso   1.000  C
  C131     1.0000 0.64084  0.56125  0.87344  Biso   1.000  C
  C132     1.0000 0.35916  0.43875  0.12656  Biso   1.000  C
  C133     1.0000 0.04192  0.76147  0.70627  Biso   1.000  C
  C134     1.0000 0.95808  0.23853  0.29373  Biso   1.000  C
  C135     1.0000 0.54192  0.73853  0.29373  Biso   1.000  C
  C136     1.0000 0.45808  0.26147  0.70627  Biso   1.000  C
  C137     1.0000 0.13975  0.97903  0.27850  Biso   1.000  C
  C138     1.0000 0.86025  0.02097  0.72150  Biso   1.000  C
  C139     1.0000 0.63975  0.52097  0.72150  Biso   1.000  C
  C140     1.0000 0.36025  0.47903  0.27850  Biso   1.000  C
  C141     1.0000 0.04169  0.78456  0.78373  Biso   1.000  C
  C142     1.0000 0.95831  0.21544  0.21627  Biso   1.000  C
  C143     1.0000 0.54169  0.71544  0.21627  Biso   1.000  C
  C144     1.0000 0.45831  0.28456  0.78373  Biso   1.000  C
  C145     1.0000 0.94926  0.73766  0.82211  Biso   1.000  C
  C146     1.0000 0.05074  0.26234  0.17789  Biso   1.000  C
  C147     1.0000 0.44926  0.76234  0.17789  Biso   1.000  C
  C148     1.0000 0.55074  0.23766  0.82211  Biso   1.000  C
  C149     1.0000 0.94958  0.75735  0.89492  Biso   1.000  C
  C150     1.0000 0.05042  0.24265  0.10508  Biso   1.000  C
  C151     1.0000 0.44958  0.74265  0.10508  Biso   1.000  C
  C152     1.0000 0.55042  0.25735  0.89492  Biso   1.000  C
  C153     1.0000 0.04229  0.82549  0.93514  Biso   1.000  C
  C154     1.0000 0.95771  0.17451  0.06486  Biso   1.000  C
  C155     1.0000 0.54229  0.67451  0.06486  Biso   1.000  C
  C156     1.0000 0.45771  0.32549  0.93514  Biso   1.000  C
  C157     1.0000 0.04330  0.84662  0.01213  Biso   1.000  C
  C158     1.0000 0.95670  0.15338  0.98787  Biso   1.000  C
  C159     1.0000 0.54330  0.65338  0.98787  Biso   1.000  C
  C160     1.0000 0.45670  0.34662  0.01213  Biso   1.000  C
