data_image0
_cell_length_a       8.7644
_cell_length_b       9.2002
_cell_length_c       13.1212
_cell_angle_alpha    105.874
_cell_angle_beta     95.08
_cell_angle_gamma    115.249

_symmetry_space_group_name_H-M    "P 1"
_symmetry_int_tables_number       1

loop_
  _symmetry_equiv_pos_as_xyz
  'x, y, z'

loop_
  _atom_site_label
  _atom_site_occupancy
  _atom_site_fract_x
  _atom_site_fract_y
  _atom_site_fract_z
  _atom_site_thermal_displace_type
  _atom_site_B_iso_or_equiv
  _atom_site_type_symbol
  H1       1.0000 0.91180  0.14352  0.32119  Biso   1.000  H
  H2       1.0000 0.08820  0.85648  0.67881  Biso   1.000  H
  H3       1.0000 0.80919  0.08712  0.12636  Biso   1.000  H
  H4       1.0000 0.19081  0.91288  0.87364  Biso   1.000  H
  H5       1.0000 0.65757  0.13803  0.98507  Biso   1.000  H
  H6       1.0000 0.34243  0.86197  0.01493  Biso   1.000  H
  H7       1.0000 0.48870  0.27342  0.93237  Biso   1.000  H
  H8       1.0000 0.51130  0.72658  0.06763  Biso   1.000  H
  H9       1.0000 0.40875  0.45026  0.07406  Biso   1.000  H
  H10      1.0000 0.59125  0.54974  0.92594  Biso   1.000  H
  H11      1.0000 0.38073  0.67307  0.44588  Biso   1.000  H
  H12      1.0000 0.61927  0.32693  0.55412  Biso   1.000  H
  H13      1.0000 0.96758  0.28993  0.49696  Biso   1.000  H
  H14      1.0000 0.03242  0.71007  0.50304  Biso   1.000  H
  H15      1.0000 0.75930  0.19971  0.52321  Biso   1.000  H
  H16      1.0000 0.24070  0.80029  0.47679  Biso   1.000  H
  H17      1.0000 0.87656  0.42308  0.55477  Biso   1.000  H
  H18      1.0000 0.12344  0.57692  0.44523  Biso   1.000  H
  H19      1.0000 0.59598  0.85050  0.31180  Biso   1.000  H
  H20      1.0000 0.40402  0.14950  0.68820  Biso   1.000  H
  H21      1.0000 0.42821  0.99064  0.27193  Biso   1.000  H
  H22      1.0000 0.57179  0.00936  0.72807  Biso   1.000  H
  H23      1.0000 0.96530  0.50597  0.15551  Biso   1.000  H
  H24      1.0000 0.03470  0.49403  0.84448  Biso   1.000  H
  H25      1.0000 0.13452  0.36756  0.19497  Biso   1.000  H
  H26      1.0000 0.86548  0.63244  0.80503  Biso   1.000  H
  H27      1.0000 0.87038  0.68565  0.26083  Biso   1.000  H
  H28      1.0000 0.12962  0.31435  0.73917  Biso   1.000  H
  H29      1.0000 0.85187  0.86527  0.25050  Biso   1.000  H
  H30      1.0000 0.14813  0.13473  0.74950  Biso   1.000  H
  H31      1.0000 0.01821  0.89292  0.35391  Biso   1.000  H
  H32      1.0000 0.98179  0.10708  0.64609  Biso   1.000  H
  H33      1.0000 0.08747  0.08539  0.19110  Biso   1.000  H
  H34      1.0000 0.91253  0.91461  0.80890  Biso   1.000  H
  H35      1.0000 0.26384  0.05588  0.15493  Biso   1.000  H
  H36      1.0000 0.73616  0.94412  0.84507  Biso   1.000  H
  H37      1.0000 0.25007  0.10827  0.29329  Biso   1.000  H
  H38      1.0000 0.74993  0.89173  0.70671  Biso   1.000  H
  H39      1.0000 0.87114  0.61608  0.05482  Biso   1.000  H
  H40      1.0000 0.12886  0.38392  0.94518  Biso   1.000  H
  H41      1.0000 0.04172  0.76135  0.01438  Biso   1.000  H
  H42      1.0000 0.95828  0.23865  0.98562  Biso   1.000  H
  H43      1.0000 0.87812  0.81204  0.05663  Biso   1.000  H
  H44      1.0000 0.12188  0.18796  0.94337  Biso   1.000  H
  C1       1.0000 0.77143  0.27792  0.37967  Biso   1.000  C
  C2       1.0000 0.22857  0.72208  0.62033  Biso   1.000  C
  C3       1.0000 0.82438  0.19027  0.29671  Biso   1.000  C
  C4       1.0000 0.17562  0.80973  0.70329  Biso   1.000  C
  C5       1.0000 0.77086  0.16138  0.18882  Biso   1.000  C
  C6       1.0000 0.22914  0.83862  0.81118  Biso   1.000  C
  C7       1.0000 0.66842  0.23267  0.15725  Biso   1.000  C
  C8       1.0000 0.33158  0.76733  0.84275  Biso   1.000  C
  C9       1.0000 0.61706  0.32728  0.23942  Biso   1.000  C
  C10      1.0000 0.38294  0.67272  0.76058  Biso   1.000  C
  C11      1.0000 0.61937  0.21352  0.04656  Biso   1.000  C
  C12      1.0000 0.38063  0.78648  0.95344  Biso   1.000  C
  C13      1.0000 0.52627  0.28945  0.01768  Biso   1.000  C
  C14      1.0000 0.47373  0.71055  0.98232  Biso   1.000  C
  C15      1.0000 0.48038  0.38832  0.09751  Biso   1.000  C
  C16      1.0000 0.51962  0.61168  0.90249  Biso   1.000  C
  C17      1.0000 0.52289  0.40922  0.20719  Biso   1.000  C
  C18      1.0000 0.47711  0.59078  0.79281  Biso   1.000  C
  C19      1.0000 0.47383  0.51085  0.28851  Biso   1.000  C
  C20      1.0000 0.52617  0.48915  0.71149  Biso   1.000  C
  C21      1.0000 0.49880  0.51364  0.39461  Biso   1.000  C
  C22      1.0000 0.50120  0.48636  0.60539  Biso   1.000  C
  C23      1.0000 0.42937  0.59605  0.47208  Biso   1.000  C
  C24      1.0000 0.57063  0.40395  0.52792  Biso   1.000  C
  C25      1.0000 0.57990  0.41936  0.42770  Biso   1.000  C
  C26      1.0000 0.42010  0.58064  0.57230  Biso   1.000  C
  C27      1.0000 0.65887  0.34037  0.35078  Biso   1.000  C
  C28      1.0000 0.34113  0.65963  0.64922  Biso   1.000  C
  C29      1.0000 0.84692  0.29973  0.49464  Biso   1.000  C
  C30      1.0000 0.15308  0.70027  0.50536  Biso   1.000  C
  C31      1.0000 0.37768  0.59823  0.25632  Biso   1.000  C
  C32      1.0000 0.62232  0.40177  0.74368  Biso   1.000  C
  C33      1.0000 0.45677  0.77354  0.27639  Biso   1.000  C
  C34      1.0000 0.54323  0.22646  0.72361  Biso   1.000  C
  C35      1.0000 0.36053  0.85288  0.25386  Biso   1.000  C
  C36      1.0000 0.63947  0.14712  0.74614  Biso   1.000  C
  C37      1.0000 0.18176  0.76070  0.21096  Biso   1.000  C
  C38      1.0000 0.81824  0.23930  0.78904  Biso   1.000  C
  C39      1.0000 0.10460  0.58447  0.18943  Biso   1.000  C
  C40      1.0000 0.89540  0.41553  0.81057  Biso   1.000  C
  C41      1.0000 0.19987  0.50500  0.21115  Biso   1.000  C
  C42      1.0000 0.80013  0.49500  0.78885  Biso   1.000  C
  C43      1.0000 0.06794  0.84316  0.19069  Biso   1.000  C
  C44      1.0000 0.93206  0.15684  0.80931  Biso   1.000  C
  C45      1.0000 0.94539  0.82030  0.26853  Biso   1.000  C
  C46      1.0000 0.05461  0.17970  0.73147  Biso   1.000  C
  C47      1.0000 0.17399  0.03289  0.20891  Biso   1.000  C
  C48      1.0000 0.82601  0.96711  0.79109  Biso   1.000  C
  C49      1.0000 0.95851  0.75240  0.07259  Biso   1.000  C
  C50      1.0000 0.04149  0.24760  0.92741  Biso   1.000  C
