data_image0
_cell_length_a       9.0007
_cell_length_b       12.99
_cell_length_c       14.0601
_cell_angle_alpha    66.56
_cell_angle_beta     89.423
_cell_angle_gamma    83.493

_symmetry_space_group_name_H-M    "P 1"
_symmetry_int_tables_number       1

loop_
  _symmetry_equiv_pos_as_xyz
  'x, y, z'

loop_
  _atom_site_label
  _atom_site_occupancy
  _atom_site_fract_x
  _atom_site_fract_y
  _atom_site_fract_z
  _atom_site_thermal_displace_type
  _atom_site_B_iso_or_equiv
  _atom_site_type_symbol
  H1       1.0000 0.26614  0.59619  0.22681  Biso   1.000  H
  H2       1.0000 0.73386  0.40381  0.77319  Biso   1.000  H
  H3       1.0000 0.48581  0.54929  0.34235  Biso   1.000  H
  H4       1.0000 0.51419  0.45071  0.65765  Biso   1.000  H
  H5       1.0000 0.50660  0.64070  0.46439  Biso   1.000  H
  H6       1.0000 0.49340  0.35930  0.53561  Biso   1.000  H
  H7       1.0000 0.40111  0.77921  0.53373  Biso   1.000  H
  H8       1.0000 0.59889  0.22079  0.46627  Biso   1.000  H
  H9       1.0000 0.20550  0.92912  0.52918  Biso   1.000  H
  H10      1.0000 0.79450  0.07088  0.47082  Biso   1.000  H
  H11      1.0000 0.99866  0.99450  0.39675  Biso   1.000  H
  H12      1.0000 0.00134  0.00550  0.60325  Biso   1.000  H
  H13      1.0000 0.85576  0.08026  0.04146  Biso   1.000  H
  H14      1.0000 0.14424  0.91974  0.95854  Biso   1.000  H
  H15      1.0000 0.67387  0.14042  0.89524  Biso   1.000  H
  H16      1.0000 0.32613  0.85958  0.10476  Biso   1.000  H
  H17      1.0000 0.53517  0.00174  0.86654  Biso   1.000  H
  H18      1.0000 0.46483  0.99826  0.13346  Biso   1.000  H
  H19      1.0000 0.48413  0.80446  0.91789  Biso   1.000  H
  H20      1.0000 0.51587  0.19554  0.08211  Biso   1.000  H
  H21      1.0000 0.55510  0.60167  0.02259  Biso   1.000  H
  H22      1.0000 0.44490  0.39833  0.97741  Biso   1.000  H
  H23      1.0000 0.77317  0.53849  0.14562  Biso   1.000  H
  H24      1.0000 0.22683  0.46151  0.85438  Biso   1.000  H
  H25      1.0000 0.21863  0.34647  0.18216  Biso   1.000  H
  H26      1.0000 0.78137  0.65353  0.81784  Biso   1.000  H
  H27      1.0000 0.99515  0.31750  0.45921  Biso   1.000  H
  H28      1.0000 0.00485  0.68250  0.54079  Biso   1.000  H
  H29      1.0000 0.21663  0.51814  0.04077  Biso   1.000  H
  H30      1.0000 0.78337  0.48186  0.95923  Biso   1.000  H
  H31      1.0000 0.17435  0.64574  0.05981  Biso   1.000  H
  H32      1.0000 0.82565  0.35426  0.94019  Biso   1.000  H
  H33      1.0000 0.03337  0.59130  0.01468  Biso   1.000  H
  H34      1.0000 0.96663  0.40870  0.98532  Biso   1.000  H
  H35      1.0000 0.21731  0.16125  0.32316  Biso   1.000  H
  H36      1.0000 0.78269  0.83875  0.67684  Biso   1.000  H
  H37      1.0000 0.10446  0.14608  0.43140  Biso   1.000  H
  H38      1.0000 0.89554  0.85392  0.56860  Biso   1.000  H
  H39      1.0000 0.28452  0.18824  0.42800  Biso   1.000  H
  H40      1.0000 0.71548  0.81176  0.57200  Biso   1.000  H
  H41      1.0000 0.83257  0.46735  0.46796  Biso   1.000  H
  H42      1.0000 0.16743  0.53265  0.53204  Biso   1.000  H
  H43      1.0000 0.76025  0.57774  0.34944  Biso   1.000  H
  H44      1.0000 0.23975  0.42226  0.65056  Biso   1.000  H
  H45      1.0000 0.91571  0.59459  0.41453  Biso   1.000  H
  H46      1.0000 0.08429  0.40541  0.58547  Biso   1.000  H
  H47      1.0000 0.85817  0.30257  0.17107  Biso   1.000  H
  H48      1.0000 0.14183  0.69743  0.82893  Biso   1.000  H
  H49      1.0000 0.51293  0.09930  0.31330  Biso   1.000  H
  H50      1.0000 0.48707  0.90070  0.68670  Biso   1.000  H
  H51      1.0000 0.07717  0.22979  0.12017  Biso   1.000  H
  H52      1.0000 0.92283  0.77021  0.87983  Biso   1.000  H
  H53      1.0000 0.06665  0.10914  0.09236  Biso   1.000  H
  H54      1.0000 0.93335  0.89086  0.90764  Biso   1.000  H
  H55      1.0000 0.14705  0.09256  0.21108  Biso   1.000  H
  H56      1.0000 0.85295  0.90744  0.78892  Biso   1.000  H
  H57      1.0000 0.64216  0.36493  0.27151  Biso   1.000  H
  H58      1.0000 0.35784  0.63507  0.72849  Biso   1.000  H
  H59      1.0000 0.47806  0.29675  0.28399  Biso   1.000  H
  H60      1.0000 0.52194  0.70325  0.71601  Biso   1.000  H
  H61      1.0000 0.54232  0.37512  0.15970  Biso   1.000  H
  H62      1.0000 0.45768  0.62488  0.84030  Biso   1.000  H
  H63      1.0000 0.54669  0.90393  0.36584  Biso   1.000  H
  H64      1.0000 0.45331  0.09607  0.63416  Biso   1.000  H
  H65      1.0000 0.73181  0.83294  0.38177  Biso   1.000  H
  H66      1.0000 0.26819  0.16706  0.61823  Biso   1.000  H
  H67      1.0000 0.62720  0.86844  0.26581  Biso   1.000  H
  H68      1.0000 0.37280  0.13156  0.73419  Biso   1.000  H
  C1       1.0000 0.94922  0.67111  0.18931  Biso   1.000  C
  C2       1.0000 0.05078  0.32889  0.81069  Biso   1.000  C
  C3       1.0000 0.01614  0.74796  0.21296  Biso   1.000  C
  C4       1.0000 0.98386  0.25204  0.78704  Biso   1.000  C
  C5       1.0000 0.15516  0.71989  0.27723  Biso   1.000  C
  C6       1.0000 0.84484  0.28011  0.72277  Biso   1.000  C
  C7       1.0000 0.27105  0.63956  0.27832  Biso   1.000  C
  C8       1.0000 0.72895  0.36044  0.72168  Biso   1.000  C
  C9       1.0000 0.39711  0.61282  0.34459  Biso   1.000  C
  C10      1.0000 0.60289  0.38718  0.65541  Biso   1.000  C
  C11      1.0000 0.40955  0.66380  0.41097  Biso   1.000  C
  C12      1.0000 0.59045  0.33620  0.58903  Biso   1.000  C
  C13      1.0000 0.29775  0.74888  0.41099  Biso   1.000  C
  C14      1.0000 0.70225  0.25112  0.58901  Biso   1.000  C
  C15      1.0000 0.30600  0.80481  0.47854  Biso   1.000  C
  C16      1.0000 0.69400  0.19519  0.52146  Biso   1.000  C
  C17      1.0000 0.19810  0.88806  0.47551  Biso   1.000  C
  C18      1.0000 0.80190  0.11194  0.52449  Biso   1.000  C
  C19      1.0000 0.07968  0.92344  0.40185  Biso   1.000  C
  C20      1.0000 0.92032  0.07656  0.59815  Biso   1.000  C
  C21      1.0000 0.06554  0.87342  0.33287  Biso   1.000  C
  C22      1.0000 0.93446  0.12658  0.66713  Biso   1.000  C
  C23      1.0000 0.95249  0.91773  0.24789  Biso   1.000  C
  C24      1.0000 0.04751  0.08227  0.75211  Biso   1.000  C
  C25      1.0000 0.93682  0.86235  0.18468  Biso   1.000  C
  C26      1.0000 0.06318  0.13765  0.81532  Biso   1.000  C
  C27      1.0000 0.83184  0.90373  0.09433  Biso   1.000  C
  C28      1.0000 0.16816  0.09627  0.90567  Biso   1.000  C
  C29      1.0000 0.79908  0.01684  0.02919  Biso   1.000  C
  C30      1.0000 0.20092  0.98316  0.97081  Biso   1.000  C
  C31      1.0000 0.69572  0.05106  0.94580  Biso   1.000  C
  C32      1.0000 0.30428  0.94894  0.05420  Biso   1.000  C
  C33      1.0000 0.62044  0.97435  0.92888  Biso   1.000  C
  C34      1.0000 0.37956  0.02565  0.07112  Biso   1.000  C
  C35      1.0000 0.65084  0.85862  0.99118  Biso   1.000  C
  C36      1.0000 0.34916  0.14138  0.00882  Biso   1.000  C
  C37      1.0000 0.57515  0.77608  0.97643  Biso   1.000  C
  C38      1.0000 0.42485  0.22392  0.02357  Biso   1.000  C
  C39      1.0000 0.61540  0.66465  0.03363  Biso   1.000  C
  C40      1.0000 0.38460  0.33535  0.96637  Biso   1.000  C
  C41      1.0000 0.73642  0.62853  0.10533  Biso   1.000  C
  C42      1.0000 0.26358  0.37147  0.89467  Biso   1.000  C
  C43      1.0000 0.81297  0.70520  0.12434  Biso   1.000  C
  C44      1.0000 0.18703  0.29480  0.87566  Biso   1.000  C
  C45      1.0000 0.17249  0.78033  0.34047  Biso   1.000  C
  C46      1.0000 0.82751  0.21967  0.65953  Biso   1.000  C
  C47      1.0000 0.76393  0.82286  0.07091  Biso   1.000  C
  C48      1.0000 0.23607  0.17714  0.92909  Biso   1.000  C
  C49      1.0000 0.00492  0.54770  0.23496  Biso   1.000  C
  C50      1.0000 0.99508  0.45230  0.76504  Biso   1.000  C
  C51      1.0000 0.09262  0.49811  0.17797  Biso   1.000  C
  C52      1.0000 0.90738  0.50189  0.82203  Biso   1.000  C
  C53      1.0000 0.14805  0.38464  0.22603  Biso   1.000  C
  C54      1.0000 0.85195  0.61536  0.77397  Biso   1.000  C
  C55      1.0000 0.11788  0.31950  0.32752  Biso   1.000  C
  C56      1.0000 0.88212  0.68050  0.67248  Biso   1.000  C
  C57      1.0000 0.02465  0.36884  0.38031  Biso   1.000  C
  C58      1.0000 0.97535  0.63116  0.61969  Biso   1.000  C
  C59      1.0000 0.96637  0.48178  0.33577  Biso   1.000  C
  C60      1.0000 0.03363  0.51822  0.66423  Biso   1.000  C
  C61      1.0000 0.13190  0.56660  0.06807  Biso   1.000  C
  C62      1.0000 0.86810  0.43340  0.93193  Biso   1.000  C
  C63      1.0000 0.18430  0.19726  0.37973  Biso   1.000  C
  C64      1.0000 0.81570  0.80274  0.62027  Biso   1.000  C
  C65      1.0000 0.86340  0.53258  0.39515  Biso   1.000  C
  C66      1.0000 0.13660  0.46742  0.60485  Biso   1.000  C
  C67      1.0000 0.85279  0.02169  0.24037  Biso   1.000  C
  C68      1.0000 0.14721  0.97831  0.75963  Biso   1.000  C
  C69      1.0000 0.90521  0.12793  0.19984  Biso   1.000  C
  C70      1.0000 0.09479  0.87207  0.80016  Biso   1.000  C
  C71      1.0000 0.81450  0.22090  0.20156  Biso   1.000  C
  C72      1.0000 0.18550  0.77910  0.79844  Biso   1.000  C
  C73      1.0000 0.67426  0.21313  0.24131  Biso   1.000  C
  C74      1.0000 0.32574  0.78687  0.75869  Biso   1.000  C
  C75      1.0000 0.62396  0.10796  0.28092  Biso   1.000  C
  C76      1.0000 0.37604  0.89204  0.71908  Biso   1.000  C
  C77      1.0000 0.71072  0.01145  0.28171  Biso   1.000  C
  C78      1.0000 0.28928  0.98855  0.71829  Biso   1.000  C
  C79      1.0000 0.05632  0.14115  0.15379  Biso   1.000  C
  C80      1.0000 0.94368  0.85885  0.84621  Biso   1.000  C
  C81      1.0000 0.57910  0.31754  0.23948  Biso   1.000  C
  C82      1.0000 0.42090  0.68246  0.76052  Biso   1.000  C
  C83      1.0000 0.65098  0.89866  0.32626  Biso   1.000  C
  C84      1.0000 0.34902  0.10134  0.67374  Biso   1.000  C
