data_image0
_cell_length_a       6.154
_cell_length_b       8.48
_cell_length_c       13.515
_cell_angle_alpha    90.46
_cell_angle_beta     90
_cell_angle_gamma    90

_symmetry_space_group_name_H-M    "P 1"
_symmetry_int_tables_number       1

loop_
  _symmetry_equiv_pos_as_xyz
  'x, y, z'

loop_
  _atom_site_label
  _atom_site_occupancy
  _atom_site_fract_x
  _atom_site_fract_y
  _atom_site_fract_z
  _atom_site_thermal_displace_type
  _atom_site_B_iso_or_equiv
  _atom_site_type_symbol
  H1       1.0000 0.09055  0.49794  0.69506  Biso   1.000  H
  H2       1.0000 0.59055  0.50206  0.30494  Biso   1.000  H
  H3       1.0000 0.08780  0.56312  0.87117  Biso   1.000  H
  H4       1.0000 0.58780  0.43688  0.12883  Biso   1.000  H
  H5       1.0000 0.80211  0.46734  0.97980  Biso   1.000  H
  H6       1.0000 0.30211  0.53266  0.02020  Biso   1.000  H
  H7       1.0000 0.48938  0.31228  0.91379  Biso   1.000  H
  H8       1.0000 0.98938  0.68772  0.08621  Biso   1.000  H
  H9       1.0000 0.31355  0.19858  0.76958  Biso   1.000  H
  H10      1.0000 0.81355  0.80142  0.23042  Biso   1.000  H
  H11      1.0000 0.28964  0.13262  0.59760  Biso   1.000  H
  H12      1.0000 0.78964  0.86738  0.40240  Biso   1.000  H
  H13      1.0000 0.08069  0.44172  0.55788  Biso   1.000  H
  H14      1.0000 0.58069  0.55828  0.44212  Biso   1.000  H
  H15      1.0000 0.08181  0.36573  0.38089  Biso   1.000  H
  H16      1.0000 0.58181  0.63427  0.61911  Biso   1.000  H
  H17      1.0000 0.29161  0.07154  0.46076  Biso   1.000  H
  H18      1.0000 0.79161  0.92846  0.53924  Biso   1.000  H
  H19      1.0000 0.28153  0.99515  0.28797  Biso   1.000  H
  H20      1.0000 0.78153  0.00485  0.71203  Biso   1.000  H
  H21      1.0000 0.06659  0.30162  0.24458  Biso   1.000  H
  H22      1.0000 0.56659  0.69838  0.75542  Biso   1.000  H
  H23      1.0000 0.04699  0.21483  0.07205  Biso   1.000  H
  H24      1.0000 0.54699  0.78517  0.92795  Biso   1.000  H
  H25      1.0000 0.73887  0.05628  0.01173  Biso   1.000  H
  H26      1.0000 0.23887  0.94372  0.98827  Biso   1.000  H
  H27      1.0000 0.43985  0.98069  0.12636  Biso   1.000  H
  H28      1.0000 0.93985  0.01931  0.87364  Biso   1.000  H
  C1       1.0000 0.78450  0.36920  0.69720  Biso   1.000  C
  C2       1.0000 0.28450  0.63080  0.30280  Biso   1.000  C
  C3       1.0000 0.95510  0.45660  0.73930  Biso   1.000  C
  C4       1.0000 0.45510  0.54340  0.26070  Biso   1.000  C
  C5       1.0000 0.95420  0.49350  0.84110  Biso   1.000  C
  C6       1.0000 0.45420  0.50650  0.15890  Biso   1.000  C
  C7       1.0000 0.79300  0.44020  0.90070  Biso   1.000  C
  C8       1.0000 0.29300  0.55980  0.09930  Biso   1.000  C
  C9       1.0000 0.61920  0.35510  0.86640  Biso   1.000  C
  C10      1.0000 0.11920  0.64490  0.13360  Biso   1.000  C
  C11      1.0000 0.61520  0.32300  0.76300  Biso   1.000  C
  C12      1.0000 0.11520  0.67700  0.23700  Biso   1.000  C
  C13      1.0000 0.44590  0.23550  0.72130  Biso   1.000  C
  C14      1.0000 0.94590  0.76450  0.27870  Biso   1.000  C
  C15      1.0000 0.43140  0.19770  0.62290  Biso   1.000  C
  C16      1.0000 0.93140  0.80230  0.37710  Biso   1.000  C
  C17      1.0000 0.60080  0.23670  0.55610  Biso   1.000  C
  C18      1.0000 0.10080  0.76330  0.44390  Biso   1.000  C
  C19      1.0000 0.77440  0.32330  0.59310  Biso   1.000  C
  C20      1.0000 0.27440  0.67670  0.40690  Biso   1.000  C
  C21      1.0000 0.94600  0.37310  0.52870  Biso   1.000  C
  C22      1.0000 0.44600  0.62690  0.47130  Biso   1.000  C
  C23      1.0000 0.94900  0.32950  0.42810  Biso   1.000  C
  C24      1.0000 0.44900  0.67050  0.57190  Biso   1.000  C
  C25      1.0000 0.76840  0.24010  0.39270  Biso   1.000  C
  C26      1.0000 0.26840  0.75990  0.60730  Biso   1.000  C
  C27      1.0000 0.59880  0.19380  0.45360  Biso   1.000  C
  C28      1.0000 0.09880  0.80620  0.54640  Biso   1.000  C
  C29      1.0000 0.42610  0.10580  0.41360  Biso   1.000  C
  C30      1.0000 0.92610  0.89420  0.58640  Biso   1.000  C
  C31      1.0000 0.41960  0.06200  0.31620  Biso   1.000  C
  C32      1.0000 0.91960  0.93800  0.68380  Biso   1.000  C
  C33      1.0000 0.59120  0.10130  0.25000  Biso   1.000  C
  C34      1.0000 0.09120  0.89870  0.75000  Biso   1.000  C
  C35      1.0000 0.76420  0.19100  0.28750  Biso   1.000  C
  C36      1.0000 0.26420  0.80900  0.71250  Biso   1.000  C
  C37      1.0000 0.92720  0.23140  0.22190  Biso   1.000  C
  C38      1.0000 0.42720  0.76860  0.77810  Biso   1.000  C
  C39      1.0000 0.91710  0.18100  0.12240  Biso   1.000  C
  C40      1.0000 0.41710  0.81900  0.87760  Biso   1.000  C
  C41      1.0000 0.74440  0.09260  0.08940  Biso   1.000  C
  C42      1.0000 0.24440  0.90740  0.91060  Biso   1.000  C
  C43      1.0000 0.57820  0.05090  0.15080  Biso   1.000  C
  C44      1.0000 0.07820  0.94910  0.84920  Biso   1.000  C
