data_image0
_cell_length_a       7.0196
_cell_length_b       8.5432
_cell_length_c       11.948
_cell_angle_alpha    93.04
_cell_angle_beta     105.58
_cell_angle_gamma    96.28

_symmetry_space_group_name_H-M    "P 1"
_symmetry_int_tables_number       1

loop_
  _symmetry_equiv_pos_as_xyz
  'x, y, z'

loop_
  _atom_site_label
  _atom_site_occupancy
  _atom_site_fract_x
  _atom_site_fract_y
  _atom_site_fract_z
  _atom_site_thermal_displace_type
  _atom_site_B_iso_or_equiv
  _atom_site_type_symbol
  H1       1.0000 0.80589  0.86720  0.93624  Biso   1.000  H
  H2       1.0000 0.19411  0.13280  0.06376  Biso   1.000  H
  H3       1.0000 0.04297  0.19132  0.76225  Biso   1.000  H
  H4       1.0000 0.95703  0.80868  0.23775  Biso   1.000  H
  H5       1.0000 0.93843  0.50901  0.71417  Biso   1.000  H
  H6       1.0000 0.06157  0.49099  0.28583  Biso   1.000  H
  H7       1.0000 0.12110  0.85468  0.08430  Biso   1.000  H
  H8       1.0000 0.87890  0.14532  0.91570  Biso   1.000  H
  H9       1.0000 0.36760  0.06214  0.93231  Biso   1.000  H
  H10      1.0000 0.63240  0.93786  0.06769  Biso   1.000  H
  H11      1.0000 0.69279  0.30237  0.72268  Biso   1.000  H
  H12      1.0000 0.30721  0.69763  0.27732  Biso   1.000  H
  H13      1.0000 0.71652  0.69727  0.75019  Biso   1.000  H
  H14      1.0000 0.28348  0.30273  0.24981  Biso   1.000  H
  H15      1.0000 0.41560  0.57487  0.68178  Biso   1.000  H
  H16      1.0000 0.58440  0.42513  0.31822  Biso   1.000  H
  H17      1.0000 0.39881  0.83051  0.61195  Biso   1.000  H
  H18      1.0000 0.60119  0.16949  0.38805  Biso   1.000  H
  H19      1.0000 0.28080  0.82794  0.79051  Biso   1.000  H
  H20      1.0000 0.71920  0.17206  0.20949  Biso   1.000  H
  H21      1.0000 0.06679  0.22795  0.40955  Biso   1.000  H
  H22      1.0000 0.93321  0.77205  0.59045  Biso   1.000  H
  H23      1.0000 0.60647  0.06848  0.58019  Biso   1.000  H
  H24      1.0000 0.39353  0.93152  0.41981  Biso   1.000  H
  H25      1.0000 0.93592  0.08856  0.55505  Biso   1.000  H
  H26      1.0000 0.06408  0.91144  0.44495  Biso   1.000  H
  H27      1.0000 0.30752  0.47345  0.47352  Biso   1.000  H
  H28      1.0000 0.69248  0.52655  0.52648  Biso   1.000  H
  C1       1.0000 0.47140  0.44760  0.94576  Biso   1.000  C
  C2       1.0000 0.52860  0.55240  0.05424  Biso   1.000  C
  C3       1.0000 0.29240  0.46400  0.85884  Biso   1.000  C
  C4       1.0000 0.70760  0.53600  0.14116  Biso   1.000  C
  C5       1.0000 0.16200  0.56720  0.88140  Biso   1.000  C
  C6       1.0000 0.83800  0.43280  0.11860  Biso   1.000  C
  C7       1.0000 0.59870  0.33333  0.93061  Biso   1.000  C
  C8       1.0000 0.40130  0.66667  0.06939  Biso   1.000  C
  C9       1.0000 0.21660  0.66880  0.98740  Biso   1.000  C
  C10      1.0000 0.78340  0.33120  0.01260  Biso   1.000  C
  C11      1.0000 0.23950  0.38890  0.73650  Biso   1.000  C
  C12      1.0000 0.76050  0.61110  0.26350  Biso   1.000  C
  C13      1.0000 0.53530  0.19850  0.83730  Biso   1.000  C
  C14      1.0000 0.46470  0.80150  0.16270  Biso   1.000  C
  C15      1.0000 0.90730  0.78550  0.92160  Biso   1.000  C
  C16      1.0000 0.09270  0.21450  0.07840  Biso   1.000  C
  C17      1.0000 0.10220  0.25300  0.69900  Biso   1.000  C
  C18      1.0000 0.89780  0.74700  0.30100  Biso   1.000  C
  C19      1.0000 0.97800  0.58290  0.79590  Biso   1.000  C
  C20      1.0000 0.02200  0.41710  0.20410  Biso   1.000  C
  C21      1.0000 0.08160  0.77810  0.00380  Biso   1.000  C
  C22      1.0000 0.91840  0.22190  0.99620  Biso   1.000  C
  C23      1.0000 0.42100  0.06380  0.85470  Biso   1.000  C
  C24      1.0000 0.57900  0.93620  0.14530  Biso   1.000  C
  C25      1.0000 0.60240  0.19800  0.73770  Biso   1.000  C
  C26      1.0000 0.39760  0.80200  0.26230  Biso   1.000  C
  C27      1.0000 0.85510  0.68720  0.81590  Biso   1.000  C
  C28      1.0000 0.14490  0.31280  0.18410  Biso   1.000  C
  C29      1.0000 0.31130  0.46700  0.65370  Biso   1.000  C
  C30      1.0000 0.68870  0.53300  0.34630  Biso   1.000  C
  C31      1.0000 0.43800  0.93330  0.67570  Biso   1.000  C
  C32      1.0000 0.56200  0.06670  0.32430  Biso   1.000  C
  C33      1.0000 0.37150  0.93170  0.77480  Biso   1.000  C
  C34      1.0000 0.62850  0.06830  0.22520  Biso   1.000  C
  C35      1.0000 0.11610  0.27310  0.50110  Biso   1.000  C
  C36      1.0000 0.88390  0.72690  0.49890  Biso   1.000  C
  C37      1.0000 0.55250  0.06630  0.65750  Biso   1.000  C
  C38      1.0000 0.44750  0.93370  0.34250  Biso   1.000  C
  C39      1.0000 0.04220  0.19550  0.58230  Biso   1.000  C
  C40      1.0000 0.95780  0.80450  0.41770  Biso   1.000  C
  C41      1.0000 0.25030  0.40950  0.53680  Biso   1.000  C
  C42      1.0000 0.74970  0.59050  0.46320  Biso   1.000  C
