data_image0
_cell_length_a       13.111
_cell_length_b       13.131
_cell_length_c       23.835
_cell_angle_alpha    90
_cell_angle_beta     99.37
_cell_angle_gamma    90

_symmetry_space_group_name_H-M    "P 1"
_symmetry_int_tables_number       1

loop_
  _symmetry_equiv_pos_as_xyz
  'x, y, z'

loop_
  _atom_site_label
  _atom_site_occupancy
  _atom_site_fract_x
  _atom_site_fract_y
  _atom_site_fract_z
  _atom_site_thermal_displace_type
  _atom_site_B_iso_or_equiv
  _atom_site_type_symbol
  H1       1.0000 0.36754  0.01323  0.97067  Biso   1.000  H
  H2       1.0000 0.63246  0.98677  0.02933  Biso   1.000  H
  H3       1.0000 0.13246  0.51323  0.52933  Biso   1.000  H
  H4       1.0000 0.86754  0.48677  0.47067  Biso   1.000  H
  H5       1.0000 0.41548  0.88691  0.90609  Biso   1.000  H
  H6       1.0000 0.58452  0.11309  0.09391  Biso   1.000  H
  H7       1.0000 0.08452  0.38691  0.59391  Biso   1.000  H
  H8       1.0000 0.91548  0.61309  0.40609  Biso   1.000  H
  H9       1.0000 0.54519  0.92831  0.84401  Biso   1.000  H
  H10      1.0000 0.45481  0.07169  0.15599  Biso   1.000  H
  H11      1.0000 0.95481  0.42831  0.65599  Biso   1.000  H
  H12      1.0000 0.04519  0.57169  0.34401  Biso   1.000  H
  H13      1.0000 0.62750  0.09540  0.85073  Biso   1.000  H
  H14      1.0000 0.37250  0.90460  0.14927  Biso   1.000  H
  H15      1.0000 0.87250  0.59540  0.64927  Biso   1.000  H
  H16      1.0000 0.12750  0.40460  0.35073  Biso   1.000  H
  H17      1.0000 0.64640  0.24147  0.83824  Biso   1.000  H
  H18      1.0000 0.35360  0.75853  0.16176  Biso   1.000  H
  H19      1.0000 0.85360  0.74147  0.66176  Biso   1.000  H
  H20      1.0000 0.14640  0.25853  0.33824  Biso   1.000  H
  H21      1.0000 0.72570  0.40880  0.84207  Biso   1.000  H
  H22      1.0000 0.27430  0.59120  0.15793  Biso   1.000  H
  H23      1.0000 0.77430  0.90880  0.65793  Biso   1.000  H
  H24      1.0000 0.22570  0.09120  0.34207  Biso   1.000  H
  H25      1.0000 0.71197  0.52308  0.92408  Biso   1.000  H
  H26      1.0000 0.28803  0.47692  0.07592  Biso   1.000  H
  H27      1.0000 0.78803  0.02308  0.57592  Biso   1.000  H
  H28      1.0000 0.21197  0.97692  0.42408  Biso   1.000  H
  H29      1.0000 0.62439  0.46634  0.00017  Biso   1.000  H
  H30      1.0000 0.37561  0.53366  0.99983  Biso   1.000  H
  H31      1.0000 0.87561  0.96634  0.49983  Biso   1.000  H
  H32      1.0000 0.12439  0.03366  0.50017  Biso   1.000  H
  H33      1.0000 0.23827  0.22430  0.91016  Biso   1.000  H
  H34      1.0000 0.76173  0.77570  0.08984  Biso   1.000  H
  H35      1.0000 0.26173  0.72430  0.58984  Biso   1.000  H
  H36      1.0000 0.73827  0.27570  0.41016  Biso   1.000  H
  H37      1.0000 0.09351  0.11529  0.86741  Biso   1.000  H
  H38      1.0000 0.90649  0.88471  0.13259  Biso   1.000  H
  H39      1.0000 0.40649  0.61529  0.63259  Biso   1.000  H
  H40      1.0000 0.59351  0.38471  0.36741  Biso   1.000  H
  H41      1.0000 0.03606  0.97378  0.92403  Biso   1.000  H
  H42      1.0000 0.96394  0.02622  0.07597  Biso   1.000  H
  H43      1.0000 0.46394  0.47378  0.57597  Biso   1.000  H
  H44      1.0000 0.53606  0.52622  0.42403  Biso   1.000  H
  H45      1.0000 0.12227  0.94488  0.02208  Biso   1.000  H
  H46      1.0000 0.87773  0.05512  0.97792  Biso   1.000  H
  H47      1.0000 0.37773  0.44488  0.47792  Biso   1.000  H
  H48      1.0000 0.62227  0.55512  0.52208  Biso   1.000  H
  H49      1.0000 0.26721  0.05489  0.06491  Biso   1.000  H
  H50      1.0000 0.73279  0.94511  0.93509  Biso   1.000  H
  H51      1.0000 0.23279  0.55489  0.43509  Biso   1.000  H
  H52      1.0000 0.76721  0.44511  0.56491  Biso   1.000  H
  H53      1.0000 0.73509  0.27750  0.08107  Biso   1.000  H
  H54      1.0000 0.26491  0.72250  0.91893  Biso   1.000  H
  H55      1.0000 0.76491  0.77750  0.41893  Biso   1.000  H
  H56      1.0000 0.23509  0.22250  0.58107  Biso   1.000  H
  H57      1.0000 0.87932  0.39397  0.11234  Biso   1.000  H
  H58      1.0000 0.12068  0.60603  0.88766  Biso   1.000  H
  H59      1.0000 0.62068  0.89397  0.38766  Biso   1.000  H
  H60      1.0000 0.37932  0.10603  0.61234  Biso   1.000  H
  H61      1.0000 0.84499  0.57355  0.13519  Biso   1.000  H
  H62      1.0000 0.15501  0.42645  0.86481  Biso   1.000  H
  H63      1.0000 0.65501  0.07355  0.36481  Biso   1.000  H
  H64      1.0000 0.34499  0.92645  0.63519  Biso   1.000  H
  H65      1.0000 0.66481  0.63326  0.12869  Biso   1.000  H
  H66      1.0000 0.33519  0.36674  0.87131  Biso   1.000  H
  H67      1.0000 0.83519  0.13326  0.37131  Biso   1.000  H
  H68      1.0000 0.16481  0.86674  0.62869  Biso   1.000  H
  H69      1.0000 0.52166  0.51602  0.09864  Biso   1.000  H
  H70      1.0000 0.47834  0.48398  0.90136  Biso   1.000  H
  H71      1.0000 0.97834  0.01602  0.40136  Biso   1.000  H
  H72      1.0000 0.02166  0.98398  0.59864  Biso   1.000  H
  H73      1.0000 0.60345  0.17551  0.18284  Biso   1.000  H
  H74      1.0000 0.39655  0.82449  0.81716  Biso   1.000  H
  H75      1.0000 0.89655  0.67551  0.31716  Biso   1.000  H
  H76      1.0000 0.10345  0.32449  0.68284  Biso   1.000  H
  H77      1.0000 0.76050  0.18370  0.25304  Biso   1.000  H
  H78      1.0000 0.23950  0.81630  0.74696  Biso   1.000  H
  H79      1.0000 0.73950  0.68370  0.24696  Biso   1.000  H
  H80      1.0000 0.26050  0.31630  0.75304  Biso   1.000  H
  H81      1.0000 0.80678  0.34219  0.30781  Biso   1.000  H
  H82      1.0000 0.19322  0.65781  0.69219  Biso   1.000  H
  H83      1.0000 0.69322  0.84219  0.19219  Biso   1.000  H
  H84      1.0000 0.30678  0.15781  0.80781  Biso   1.000  H
  H85      1.0000 0.69359  0.49272  0.28905  Biso   1.000  H
  H86      1.0000 0.30641  0.50728  0.71095  Biso   1.000  H
  H87      1.0000 0.80641  0.99272  0.21095  Biso   1.000  H
  H88      1.0000 0.19359  0.00728  0.78905  Biso   1.000  H
  H89      1.0000 0.53506  0.48420  0.21885  Biso   1.000  H
  H90      1.0000 0.46494  0.51580  0.78115  Biso   1.000  H
  H91      1.0000 0.96494  0.98420  0.28115  Biso   1.000  H
  H92      1.0000 0.03506  0.01580  0.71885  Biso   1.000  H
  H93      1.0000 0.42643  0.17036  0.25783  Biso   1.000  H
  H94      1.0000 0.57357  0.82964  0.74217  Biso   1.000  H
  H95      1.0000 0.07357  0.67036  0.24217  Biso   1.000  H
  H96      1.0000 0.92643  0.32964  0.75783  Biso   1.000  H
  H97      1.0000 0.43264  0.17821  0.36155  Biso   1.000  H
  H98      1.0000 0.56736  0.82179  0.63845  Biso   1.000  H
  H99      1.0000 0.06736  0.67821  0.13845  Biso   1.000  H
  H100     1.0000 0.93264  0.32179  0.86155  Biso   1.000  H
  H101     1.0000 0.38256  0.33293  0.40663  Biso   1.000  H
  H102     1.0000 0.61744  0.66707  0.59337  Biso   1.000  H
  H103     1.0000 0.11744  0.83293  0.09337  Biso   1.000  H
  H104     1.0000 0.88256  0.16707  0.90663  Biso   1.000  H
  H105     1.0000 0.32804  0.48492  0.34828  Biso   1.000  H
  H106     1.0000 0.67196  0.51508  0.65172  Biso   1.000  H
  H107     1.0000 0.17196  0.98492  0.15172  Biso   1.000  H
  H108     1.0000 0.82804  0.01508  0.84828  Biso   1.000  H
  H109     1.0000 0.32279  0.47873  0.24409  Biso   1.000  H
  H110     1.0000 0.67721  0.52127  0.75591  Biso   1.000  H
  H111     1.0000 0.17721  0.97873  0.25591  Biso   1.000  H
  H112     1.0000 0.82279  0.02127  0.74409  Biso   1.000  H
  H113     1.0000 0.17766  0.16915  0.20810  Biso   1.000  H
  H114     1.0000 0.82234  0.83085  0.79190  Biso   1.000  H
  H115     1.0000 0.32234  0.66915  0.29190  Biso   1.000  H
  H116     1.0000 0.67766  0.33085  0.70810  Biso   1.000  H
  H117     1.0000 0.01963  0.19753  0.25297  Biso   1.000  H
  H118     1.0000 0.98037  0.80247  0.74703  Biso   1.000  H
  H119     1.0000 0.48037  0.69753  0.24703  Biso   1.000  H
  H120     1.0000 0.51963  0.30247  0.75297  Biso   1.000  H
  H121     1.0000 0.93482  0.36526  0.24428  Biso   1.000  H
  H122     1.0000 0.06518  0.63474  0.75572  Biso   1.000  H
  H123     1.0000 0.56518  0.86526  0.25572  Biso   1.000  H
  H124     1.0000 0.43482  0.13474  0.74428  Biso   1.000  H
  H125     1.0000 0.00270  0.50438  0.19320  Biso   1.000  H
  H126     1.0000 0.99730  0.49562  0.80680  Biso   1.000  H
  H127     1.0000 0.49730  0.00438  0.30680  Biso   1.000  H
  H128     1.0000 0.50270  0.99562  0.69320  Biso   1.000  H
  H129     1.0000 0.15369  0.47451  0.14580  Biso   1.000  H
  H130     1.0000 0.84631  0.52549  0.85420  Biso   1.000  H
  H131     1.0000 0.34631  0.97451  0.35420  Biso   1.000  H
  H132     1.0000 0.65369  0.02549  0.64580  Biso   1.000  H
  H133     1.0000 0.20629  0.40256  0.99833  Biso   1.000  H
  H134     1.0000 0.79371  0.59744  0.00167  Biso   1.000  H
  H135     1.0000 0.29371  0.90256  0.50167  Biso   1.000  H
  H136     1.0000 0.70629  0.09744  0.49833  Biso   1.000  H
  H137     1.0000 0.03486  0.43939  0.94661  Biso   1.000  H
  H138     1.0000 0.96514  0.56061  0.05339  Biso   1.000  H
  H139     1.0000 0.46514  0.93939  0.55339  Biso   1.000  H
  H140     1.0000 0.53486  0.06061  0.44661  Biso   1.000  H
  H141     1.0000 0.88161  0.34508  0.96877  Biso   1.000  H
  H142     1.0000 0.11839  0.65492  0.03123  Biso   1.000  H
  H143     1.0000 0.61839  0.84508  0.53123  Biso   1.000  H
  H144     1.0000 0.38161  0.15492  0.46877  Biso   1.000  H
  H145     1.0000 0.90721  0.21103  0.04243  Biso   1.000  H
  H146     1.0000 0.09279  0.78897  0.95757  Biso   1.000  H
  H147     1.0000 0.59279  0.71103  0.45757  Biso   1.000  H
  H148     1.0000 0.40721  0.28897  0.54243  Biso   1.000  H
  H149     1.0000 0.07769  0.17648  0.09592  Biso   1.000  H
  H150     1.0000 0.92231  0.82352  0.90408  Biso   1.000  H
  H151     1.0000 0.42231  0.67648  0.40408  Biso   1.000  H
  H152     1.0000 0.57769  0.32352  0.59592  Biso   1.000  H
  C1       1.0000 0.35330  0.20970  0.01430  Biso   1.000  C
  C2       1.0000 0.64670  0.79030  0.98570  Biso   1.000  C
  C3       1.0000 0.14670  0.70970  0.48570  Biso   1.000  C
  C4       1.0000 0.85330  0.29030  0.51430  Biso   1.000  C
  C5       1.0000 0.44240  0.20930  0.98920  Biso   1.000  C
  C6       1.0000 0.55760  0.79070  0.01080  Biso   1.000  C
  C7       1.0000 0.05760  0.70930  0.51080  Biso   1.000  C
  C8       1.0000 0.94240  0.29070  0.48920  Biso   1.000  C
  C9       1.0000 0.46460  0.13310  0.94650  Biso   1.000  C
  C10      1.0000 0.53540  0.86690  0.05350  Biso   1.000  C
  C11      1.0000 0.03540  0.63310  0.55350  Biso   1.000  C
  C12      1.0000 0.96460  0.36690  0.44650  Biso   1.000  C
  C13      1.0000 0.42130  0.03480  0.94270  Biso   1.000  C
  C14      1.0000 0.57870  0.96520  0.05730  Biso   1.000  C
  C15      1.0000 0.07870  0.53480  0.55730  Biso   1.000  C
  C16      1.0000 0.92130  0.46520  0.44270  Biso   1.000  C
  C17      1.0000 0.44910  0.96280  0.90650  Biso   1.000  C
  C18      1.0000 0.55090  0.03720  0.09350  Biso   1.000  C
  C19      1.0000 0.05090  0.46280  0.59350  Biso   1.000  C
  C20      1.0000 0.94910  0.53720  0.40650  Biso   1.000  C
  C21      1.0000 0.52160  0.98580  0.87240  Biso   1.000  C
  C22      1.0000 0.47840  0.01420  0.12760  Biso   1.000  C
  C23      1.0000 0.97840  0.48580  0.62760  Biso   1.000  C
  C24      1.0000 0.02160  0.51420  0.37240  Biso   1.000  C
  C25      1.0000 0.56760  0.07930  0.87620  Biso   1.000  C
  C26      1.0000 0.43240  0.92070  0.12380  Biso   1.000  C
  C27      1.0000 0.93240  0.57930  0.62380  Biso   1.000  C
  C28      1.0000 0.06760  0.42070  0.37620  Biso   1.000  C
  C29      1.0000 0.54070  0.15450  0.91320  Biso   1.000  C
  C30      1.0000 0.45930  0.84550  0.08680  Biso   1.000  C
  C31      1.0000 0.95930  0.65450  0.58680  Biso   1.000  C
  C32      1.0000 0.04070  0.34550  0.41320  Biso   1.000  C
  C33      1.0000 0.59120  0.25420  0.91800  Biso   1.000  C
  C34      1.0000 0.40880  0.74580  0.08200  Biso   1.000  C
  C35      1.0000 0.90880  0.75420  0.58200  Biso   1.000  C
  C36      1.0000 0.09120  0.24580  0.41800  Biso   1.000  C
  C37      1.0000 0.64290  0.28990  0.87490  Biso   1.000  C
  C38      1.0000 0.35710  0.71010  0.12510  Biso   1.000  C
  C39      1.0000 0.85710  0.78990  0.62510  Biso   1.000  C
  C40      1.0000 0.14290  0.21010  0.37490  Biso   1.000  C
  C41      1.0000 0.68720  0.38340  0.87680  Biso   1.000  C
  C42      1.0000 0.31280  0.61660  0.12320  Biso   1.000  C
  C43      1.0000 0.81280  0.88340  0.62320  Biso   1.000  C
  C44      1.0000 0.18720  0.11660  0.37680  Biso   1.000  C
  C45      1.0000 0.68050  0.44640  0.92280  Biso   1.000  C
  C46      1.0000 0.31950  0.55360  0.07720  Biso   1.000  C
  C47      1.0000 0.81950  0.94640  0.57720  Biso   1.000  C
  C48      1.0000 0.18050  0.05360  0.42280  Biso   1.000  C
  C49      1.0000 0.63170  0.41340  0.96610  Biso   1.000  C
  C50      1.0000 0.36830  0.58660  0.03390  Biso   1.000  C
  C51      1.0000 0.86830  0.91340  0.53390  Biso   1.000  C
  C52      1.0000 0.13170  0.08660  0.46610  Biso   1.000  C
  C53      1.0000 0.58580  0.31640  0.96550  Biso   1.000  C
  C54      1.0000 0.41420  0.68360  0.03450  Biso   1.000  C
  C55      1.0000 0.91420  0.81640  0.53450  Biso   1.000  C
  C56      1.0000 0.08580  0.18360  0.46550  Biso   1.000  C
  C57      1.0000 0.52170  0.28280  0.00820  Biso   1.000  C
  C58      1.0000 0.47830  0.71720  0.99180  Biso   1.000  C
  C59      1.0000 0.97830  0.78280  0.49180  Biso   1.000  C
  C60      1.0000 0.02170  0.21720  0.50820  Biso   1.000  C
  C61      1.0000 0.52940  0.32170  0.06320  Biso   1.000  C
  C62      1.0000 0.47060  0.67830  0.93680  Biso   1.000  C
  C63      1.0000 0.97060  0.82170  0.43680  Biso   1.000  C
  C64      1.0000 0.02940  0.17830  0.56320  Biso   1.000  C
  C65      1.0000 0.44780  0.30190  0.09560  Biso   1.000  C
  C66      1.0000 0.55220  0.69810  0.90440  Biso   1.000  C
  C67      1.0000 0.05220  0.80190  0.40440  Biso   1.000  C
  C68      1.0000 0.94780  0.19810  0.59560  Biso   1.000  C
  C69      1.0000 0.45670  0.31890  0.15650  Biso   1.000  C
  C70      1.0000 0.54330  0.68110  0.84350  Biso   1.000  C
  C71      1.0000 0.04330  0.81890  0.34350  Biso   1.000  C
  C72      1.0000 0.95670  0.18110  0.65650  Biso   1.000  C
  C73      1.0000 0.36770  0.31610  0.18040  Biso   1.000  C
  C74      1.0000 0.63230  0.68390  0.81960  Biso   1.000  C
  C75      1.0000 0.13230  0.81610  0.31960  Biso   1.000  C
  C76      1.0000 0.86770  0.18390  0.68040  Biso   1.000  C
  C77      1.0000 0.26920  0.30460  0.14690  Biso   1.000  C
  C78      1.0000 0.73080  0.69540  0.85310  Biso   1.000  C
  C79      1.0000 0.23080  0.80460  0.35310  Biso   1.000  C
  C80      1.0000 0.76920  0.19540  0.64690  Biso   1.000  C
  C81      1.0000 0.25890  0.28110  0.08930  Biso   1.000  C
  C82      1.0000 0.74110  0.71890  0.91070  Biso   1.000  C
  C83      1.0000 0.24110  0.78110  0.41070  Biso   1.000  C
  C84      1.0000 0.75890  0.21890  0.58930  Biso   1.000  C
  C85      1.0000 0.35250  0.26540  0.06540  Biso   1.000  C
  C86      1.0000 0.64750  0.73460  0.93460  Biso   1.000  C
  C87      1.0000 0.14750  0.76540  0.43460  Biso   1.000  C
  C88      1.0000 0.85250  0.23460  0.56540  Biso   1.000  C
  C89      1.0000 0.26220  0.14710  0.98960  Biso   1.000  C
  C90      1.0000 0.73780  0.85290  0.01040  Biso   1.000  C
  C91      1.0000 0.23780  0.64710  0.51040  Biso   1.000  C
  C92      1.0000 0.76220  0.35290  0.48960  Biso   1.000  C
  C93      1.0000 0.21270  0.16220  0.93490  Biso   1.000  C
  C94      1.0000 0.78730  0.83780  0.06510  Biso   1.000  C
  C95      1.0000 0.28730  0.66220  0.56510  Biso   1.000  C
  C96      1.0000 0.71270  0.33780  0.43490  Biso   1.000  C
  C97      1.0000 0.13190  0.10130  0.91070  Biso   1.000  C
  C98      1.0000 0.86810  0.89870  0.08930  Biso   1.000  C
  C99      1.0000 0.36810  0.60130  0.58930  Biso   1.000  C
  C100     1.0000 0.63190  0.39870  0.41070  Biso   1.000  C
  C101     1.0000 0.10030  0.02230  0.94250  Biso   1.000  C
  C102     1.0000 0.89970  0.97770  0.05750  Biso   1.000  C
  C103     1.0000 0.39970  0.52230  0.55750  Biso   1.000  C
  C104     1.0000 0.60030  0.47770  0.44250  Biso   1.000  C
  C105     1.0000 0.14840  0.00660  0.99730  Biso   1.000  C
  C106     1.0000 0.85160  0.99340  0.00270  Biso   1.000  C
  C107     1.0000 0.35160  0.50660  0.50270  Biso   1.000  C
  C108     1.0000 0.64840  0.49340  0.49730  Biso   1.000  C
  C109     1.0000 0.22820  0.06830  0.02160  Biso   1.000  C
  C110     1.0000 0.77180  0.93170  0.97840  Biso   1.000  C
  C111     1.0000 0.27180  0.56830  0.47840  Biso   1.000  C
  C112     1.0000 0.72820  0.43170  0.52160  Biso   1.000  C
  C113     1.0000 0.61780  0.38850  0.08740  Biso   1.000  C
  C114     1.0000 0.38220  0.61150  0.91260  Biso   1.000  C
  C115     1.0000 0.88220  0.88850  0.41260  Biso   1.000  C
  C116     1.0000 0.11780  0.11150  0.58740  Biso   1.000  C
  C117     1.0000 0.71940  0.35600  0.09200  Biso   1.000  C
  C118     1.0000 0.28060  0.64400  0.90800  Biso   1.000  C
  C119     1.0000 0.78060  0.85600  0.40800  Biso   1.000  C
  C120     1.0000 0.21940  0.14400  0.59200  Biso   1.000  C
  C121     1.0000 0.80030  0.42140  0.10950  Biso   1.000  C
  C122     1.0000 0.19970  0.57860  0.89050  Biso   1.000  C
  C123     1.0000 0.69970  0.92140  0.39050  Biso   1.000  C
  C124     1.0000 0.30030  0.07860  0.60950  Biso   1.000  C
  C125     1.0000 0.78100  0.52100  0.12220  Biso   1.000  C
  C126     1.0000 0.21900  0.47900  0.87780  Biso   1.000  C
  C127     1.0000 0.71900  0.02100  0.37780  Biso   1.000  C
  C128     1.0000 0.28100  0.97900  0.62220  Biso   1.000  C
  C129     1.0000 0.68120  0.55450  0.11860  Biso   1.000  C
  C130     1.0000 0.31880  0.44550  0.88140  Biso   1.000  C
  C131     1.0000 0.81880  0.05450  0.38140  Biso   1.000  C
  C132     1.0000 0.18120  0.94550  0.61860  Biso   1.000  C
  C133     1.0000 0.60080  0.48880  0.10190  Biso   1.000  C
  C134     1.0000 0.39920  0.51120  0.89810  Biso   1.000  C
  C135     1.0000 0.89920  0.98880  0.39810  Biso   1.000  C
  C136     1.0000 0.10080  0.01120  0.60190  Biso   1.000  C
  C137     1.0000 0.55720  0.32950  0.19490  Biso   1.000  C
  C138     1.0000 0.44280  0.67050  0.80510  Biso   1.000  C
  C139     1.0000 0.94280  0.82950  0.30510  Biso   1.000  C
  C140     1.0000 0.05720  0.17050  0.69490  Biso   1.000  C
  C141     1.0000 0.62300  0.24630  0.20590  Biso   1.000  C
  C142     1.0000 0.37700  0.75370  0.79410  Biso   1.000  C
  C143     1.0000 0.87700  0.74630  0.29410  Biso   1.000  C
  C144     1.0000 0.12300  0.25370  0.70590  Biso   1.000  C
  C145     1.0000 0.71130  0.25100  0.24540  Biso   1.000  C
  C146     1.0000 0.28870  0.74900  0.75460  Biso   1.000  C
  C147     1.0000 0.78870  0.75100  0.25460  Biso   1.000  C
  C148     1.0000 0.21130  0.24900  0.74540  Biso   1.000  C
  C149     1.0000 0.73730  0.33840  0.27570  Biso   1.000  C
  C150     1.0000 0.26270  0.66160  0.72430  Biso   1.000  C
  C151     1.0000 0.76270  0.83840  0.22430  Biso   1.000  C
  C152     1.0000 0.23730  0.16160  0.77570  Biso   1.000  C
  C153     1.0000 0.67380  0.42250  0.26530  Biso   1.000  C
  C154     1.0000 0.32620  0.57750  0.73470  Biso   1.000  C
  C155     1.0000 0.82620  0.92250  0.23470  Biso   1.000  C
  C156     1.0000 0.17380  0.07750  0.76530  Biso   1.000  C
  C157     1.0000 0.58500  0.41750  0.22630  Biso   1.000  C
  C158     1.0000 0.41500  0.58250  0.77370  Biso   1.000  C
  C159     1.0000 0.91500  0.91750  0.27370  Biso   1.000  C
  C160     1.0000 0.08500  0.08250  0.72630  Biso   1.000  C
  C161     1.0000 0.37380  0.32370  0.24390  Biso   1.000  C
  C162     1.0000 0.62620  0.67630  0.75610  Biso   1.000  C
  C163     1.0000 0.12620  0.82370  0.25610  Biso   1.000  C
  C164     1.0000 0.87380  0.17630  0.74390  Biso   1.000  C
  C165     1.0000 0.40450  0.24030  0.27750  Biso   1.000  C
  C166     1.0000 0.59550  0.75970  0.72250  Biso   1.000  C
  C167     1.0000 0.09550  0.74030  0.22250  Biso   1.000  C
  C168     1.0000 0.90450  0.25970  0.77750  Biso   1.000  C
  C169     1.0000 0.40760  0.24480  0.33560  Biso   1.000  C
  C170     1.0000 0.59240  0.75520  0.66440  Biso   1.000  C
  C171     1.0000 0.09240  0.74480  0.16440  Biso   1.000  C
  C172     1.0000 0.90760  0.25520  0.83560  Biso   1.000  C
  C173     1.0000 0.37970  0.33100  0.36070  Biso   1.000  C
  C174     1.0000 0.62030  0.66900  0.63930  Biso   1.000  C
  C175     1.0000 0.12030  0.83100  0.13930  Biso   1.000  C
  C176     1.0000 0.87970  0.16900  0.86070  Biso   1.000  C
  C177     1.0000 0.34960  0.41490  0.32850  Biso   1.000  C
  C178     1.0000 0.65040  0.58510  0.67150  Biso   1.000  C
  C179     1.0000 0.15040  0.91490  0.17150  Biso   1.000  C
  C180     1.0000 0.84960  0.08510  0.82850  Biso   1.000  C
  C181     1.0000 0.34660  0.41160  0.26980  Biso   1.000  C
  C182     1.0000 0.65340  0.58840  0.73020  Biso   1.000  C
  C183     1.0000 0.15340  0.91160  0.23020  Biso   1.000  C
  C184     1.0000 0.84660  0.08840  0.76980  Biso   1.000  C
  C185     1.0000 0.17520  0.32120  0.17410  Biso   1.000  C
  C186     1.0000 0.82480  0.67880  0.82590  Biso   1.000  C
  C187     1.0000 0.32480  0.82120  0.32590  Biso   1.000  C
  C188     1.0000 0.67520  0.17880  0.67410  Biso   1.000  C
  C189     1.0000 0.13840  0.24260  0.20430  Biso   1.000  C
  C190     1.0000 0.86160  0.75740  0.79570  Biso   1.000  C
  C191     1.0000 0.36160  0.74260  0.29570  Biso   1.000  C
  C192     1.0000 0.63840  0.25740  0.70430  Biso   1.000  C
  C193     1.0000 0.05050  0.25900  0.23000  Biso   1.000  C
  C194     1.0000 0.94950  0.74100  0.77000  Biso   1.000  C
  C195     1.0000 0.44950  0.75900  0.27000  Biso   1.000  C
  C196     1.0000 0.55050  0.24100  0.73000  Biso   1.000  C
  C197     1.0000 0.00340  0.35290  0.22470  Biso   1.000  C
  C198     1.0000 0.99660  0.64710  0.77530  Biso   1.000  C
  C199     1.0000 0.49660  0.85290  0.27530  Biso   1.000  C
  C200     1.0000 0.50340  0.14710  0.72470  Biso   1.000  C
  C201     1.0000 0.04050  0.43020  0.19640  Biso   1.000  C
  C202     1.0000 0.95950  0.56980  0.80360  Biso   1.000  C
  C203     1.0000 0.45950  0.93020  0.30360  Biso   1.000  C
  C204     1.0000 0.54050  0.06980  0.69640  Biso   1.000  C
  C205     1.0000 0.12540  0.41350  0.17020  Biso   1.000  C
  C206     1.0000 0.87460  0.58650  0.82980  Biso   1.000  C
  C207     1.0000 0.37460  0.91350  0.32980  Biso   1.000  C
  C208     1.0000 0.62540  0.08650  0.67020  Biso   1.000  C
  C209     1.0000 0.15570  0.28850  0.05280  Biso   1.000  C
  C210     1.0000 0.84430  0.71150  0.94720  Biso   1.000  C
  C211     1.0000 0.34430  0.78850  0.44720  Biso   1.000  C
  C212     1.0000 0.65570  0.21150  0.55280  Biso   1.000  C
  C213     1.0000 0.14030  0.36040  0.00880  Biso   1.000  C
  C214     1.0000 0.85970  0.63960  0.99120  Biso   1.000  C
  C215     1.0000 0.35970  0.86040  0.49120  Biso   1.000  C
  C216     1.0000 0.64030  0.13960  0.50880  Biso   1.000  C
  C217     1.0000 0.04390  0.38010  0.97910  Biso   1.000  C
  C218     1.0000 0.95610  0.61990  0.02090  Biso   1.000  C
  C219     1.0000 0.45610  0.88010  0.52090  Biso   1.000  C
  C220     1.0000 0.54390  0.11990  0.47910  Biso   1.000  C
  C221     1.0000 0.95900  0.32810  0.99120  Biso   1.000  C
  C222     1.0000 0.04100  0.67190  0.00880  Biso   1.000  C
  C223     1.0000 0.54100  0.82810  0.50880  Biso   1.000  C
  C224     1.0000 0.45900  0.17190  0.49120  Biso   1.000  C
  C225     1.0000 0.97370  0.25370  0.03290  Biso   1.000  C
  C226     1.0000 0.02630  0.74630  0.96710  Biso   1.000  C
  C227     1.0000 0.52630  0.75370  0.46710  Biso   1.000  C
  C228     1.0000 0.47370  0.24630  0.53290  Biso   1.000  C
  C229     1.0000 0.06870  0.23480  0.06300  Biso   1.000  C
  C230     1.0000 0.93130  0.76520  0.93700  Biso   1.000  C
  C231     1.0000 0.43130  0.73480  0.43700  Biso   1.000  C
  C232     1.0000 0.56870  0.26520  0.56300  Biso   1.000  C
