data_image0
_cell_length_a       6.232
_cell_length_b       18.398
_cell_length_c       19.902
_cell_angle_alpha    109.88
_cell_angle_beta     90
_cell_angle_gamma    90

_symmetry_space_group_name_H-M    "P 1"
_symmetry_int_tables_number       1

loop_
  _symmetry_equiv_pos_as_xyz
  'x, y, z'

loop_
  _atom_site_label
  _atom_site_occupancy
  _atom_site_fract_x
  _atom_site_fract_y
  _atom_site_fract_z
  _atom_site_thermal_displace_type
  _atom_site_B_iso_or_equiv
  _atom_site_type_symbol
  H1       1.0000 0.33122  0.47627  0.27771  Biso   1.000  H
  H2       1.0000 0.66878  0.52373  0.72229  Biso   1.000  H
  H3       1.0000 0.83122  0.02373  0.22229  Biso   1.000  H
  H4       1.0000 0.16878  0.97627  0.77771  Biso   1.000  H
  H5       1.0000 0.43058  0.50126  0.40246  Biso   1.000  H
  H6       1.0000 0.56942  0.49874  0.59754  Biso   1.000  H
  H7       1.0000 0.93058  0.99874  0.09754  Biso   1.000  H
  H8       1.0000 0.06942  0.00126  0.90246  Biso   1.000  H
  H9       1.0000 0.21453  0.45245  0.48107  Biso   1.000  H
  H10      1.0000 0.78547  0.54755  0.51893  Biso   1.000  H
  H11      1.0000 0.71453  0.04755  0.01893  Biso   1.000  H
  H12      1.0000 0.28547  0.95245  0.98107  Biso   1.000  H
  H13      1.0000 0.86800  0.37184  0.49283  Biso   1.000  H
  H14      1.0000 0.13200  0.62816  0.50717  Biso   1.000  H
  H15      1.0000 0.36800  0.12816  0.00717  Biso   1.000  H
  H16      1.0000 0.63200  0.87184  0.99283  Biso   1.000  H
  H17      1.0000 0.54951  0.30147  0.43418  Biso   1.000  H
  H18      1.0000 0.45049  0.69853  0.56582  Biso   1.000  H
  H19      1.0000 0.04951  0.19853  0.06582  Biso   1.000  H
  H20      1.0000 0.95049  0.80147  0.93418  Biso   1.000  H
  H21      1.0000 0.46058  0.28379  0.30947  Biso   1.000  H
  H22      1.0000 0.53942  0.71621  0.69053  Biso   1.000  H
  H23      1.0000 0.96058  0.21621  0.19053  Biso   1.000  H
  H24      1.0000 0.03942  0.78379  0.80947  Biso   1.000  H
  H25      1.0000 0.12326  0.42997  0.14455  Biso   1.000  H
  H26      1.0000 0.87674  0.57003  0.85545  Biso   1.000  H
  H27      1.0000 0.62326  0.07003  0.35545  Biso   1.000  H
  H28      1.0000 0.37674  0.92997  0.64455  Biso   1.000  H
  H29      1.0000 0.87203  0.37638  0.04286  Biso   1.000  H
  H30      1.0000 0.12797  0.62362  0.95714  Biso   1.000  H
  H31      1.0000 0.37203  0.12362  0.45714  Biso   1.000  H
  H32      1.0000 0.62797  0.87638  0.54286  Biso   1.000  H
  H33      1.0000 0.55065  0.30638  0.05540  Biso   1.000  H
  H34      1.0000 0.44935  0.69362  0.94460  Biso   1.000  H
  H35      1.0000 0.05065  0.19362  0.44460  Biso   1.000  H
  H36      1.0000 0.94935  0.80638  0.55540  Biso   1.000  H
  H37      1.0000 0.46104  0.28807  0.16984  Biso   1.000  H
  H38      1.0000 0.53896  0.71193  0.83016  Biso   1.000  H
  H39      1.0000 0.96104  0.21193  0.33016  Biso   1.000  H
  H40      1.0000 0.03896  0.78807  0.66984  Biso   1.000  H
  H41      1.0000 0.29667  0.96518  0.24434  Biso   1.000  H
  H42      1.0000 0.70333  0.03482  0.75566  Biso   1.000  H
  H43      1.0000 0.79667  0.53482  0.25566  Biso   1.000  H
  H44      1.0000 0.20333  0.46518  0.74434  Biso   1.000  H
  H45      1.0000 0.39936  0.91194  0.11755  Biso   1.000  H
  H46      1.0000 0.60064  0.08806  0.88245  Biso   1.000  H
  H47      1.0000 0.89936  0.58806  0.38245  Biso   1.000  H
  H48      1.0000 0.10064  0.41194  0.61755  Biso   1.000  H
  H49      1.0000 0.18510  0.81179  0.02977  Biso   1.000  H
  H50      1.0000 0.81490  0.18821  0.97023  Biso   1.000  H
  H51      1.0000 0.68510  0.68821  0.47023  Biso   1.000  H
  H52      1.0000 0.31490  0.31179  0.52977  Biso   1.000  H
  H53      1.0000 0.83313  0.72046  0.00816  Biso   1.000  H
  H54      1.0000 0.16687  0.27954  0.99184  Biso   1.000  H
  H55      1.0000 0.33313  0.77954  0.49184  Biso   1.000  H
  H56      1.0000 0.66687  0.22046  0.50816  Biso   1.000  H
  H57      1.0000 0.51692  0.68353  0.06176  Biso   1.000  H
  H58      1.0000 0.48308  0.31647  0.93824  Biso   1.000  H
  H59      1.0000 0.01692  0.81647  0.43824  Biso   1.000  H
  H60      1.0000 0.98308  0.18353  0.56176  Biso   1.000  H
  H61      1.0000 0.42910  0.74641  0.18935  Biso   1.000  H
  H62      1.0000 0.57090  0.25359  0.81065  Biso   1.000  H
  H63      1.0000 0.92910  0.75359  0.31065  Biso   1.000  H
  H64      1.0000 0.07090  0.24641  0.68935  Biso   1.000  H
  H65      1.0000 0.08954  0.99836  0.37549  Biso   1.000  H
  H66      1.0000 0.91046  0.00164  0.62451  Biso   1.000  H
  H67      1.0000 0.58954  0.50164  0.12451  Biso   1.000  H
  H68      1.0000 0.41046  0.49836  0.87549  Biso   1.000  H
  H69      1.0000 0.83486  0.00920  0.47378  Biso   1.000  H
  H70      1.0000 0.16514  0.99080  0.52622  Biso   1.000  H
  H71      1.0000 0.33486  0.49080  0.02622  Biso   1.000  H
  H72      1.0000 0.66514  0.50920  0.97378  Biso   1.000  H
  H73      1.0000 0.50597  0.92989  0.45258  Biso   1.000  H
  H74      1.0000 0.49403  0.07011  0.54742  Biso   1.000  H
  H75      1.0000 0.00597  0.57011  0.04742  Biso   1.000  H
  H76      1.0000 0.99403  0.42989  0.95258  Biso   1.000  H
  H77      1.0000 0.42513  0.83798  0.33186  Biso   1.000  H
  H78      1.0000 0.57487  0.16202  0.66814  Biso   1.000  H
  H79      1.0000 0.92513  0.66202  0.16814  Biso   1.000  H
  H80      1.0000 0.07487  0.33798  0.83186  Biso   1.000  H
  C1       1.0000 0.04500  0.41280  0.28270  Biso   1.000  C
  C2       1.0000 0.95500  0.58720  0.71730  Biso   1.000  C
  C3       1.0000 0.54500  0.08720  0.21730  Biso   1.000  C
  C4       1.0000 0.45500  0.91280  0.78270  Biso   1.000  C
  C5       1.0000 0.22800  0.45410  0.31050  Biso   1.000  C
  C6       1.0000 0.77200  0.54590  0.68950  Biso   1.000  C
  C7       1.0000 0.72800  0.04590  0.18950  Biso   1.000  C
  C8       1.0000 0.27200  0.95410  0.81050  Biso   1.000  C
  C9       1.0000 0.28500  0.46830  0.38210  Biso   1.000  C
  C10      1.0000 0.71500  0.53170  0.61790  Biso   1.000  C
  C11      1.0000 0.78500  0.03170  0.11790  Biso   1.000  C
  C12      1.0000 0.21500  0.96830  0.88210  Biso   1.000  C
  C13      1.0000 0.16500  0.44090  0.42580  Biso   1.000  C
  C14      1.0000 0.83500  0.55910  0.57420  Biso   1.000  C
  C15      1.0000 0.66500  0.05910  0.07420  Biso   1.000  C
  C16      1.0000 0.33500  0.94090  0.92580  Biso   1.000  C
  C17      1.0000 0.83600  0.36470  0.43700  Biso   1.000  C
  C18      1.0000 0.16400  0.63530  0.56300  Biso   1.000  C
  C19      1.0000 0.33600  0.13530  0.06300  Biso   1.000  C
  C20      1.0000 0.66400  0.86470  0.93700  Biso   1.000  C
  C21      1.0000 0.65800  0.32590  0.40460  Biso   1.000  C
  C22      1.0000 0.34200  0.67410  0.59540  Biso   1.000  C
  C23      1.0000 0.15800  0.17410  0.09540  Biso   1.000  C
  C24      1.0000 0.84200  0.82590  0.90460  Biso   1.000  C
  C25      1.0000 0.60700  0.31450  0.33240  Biso   1.000  C
  C26      1.0000 0.39300  0.68550  0.66760  Biso   1.000  C
  C27      1.0000 0.10700  0.18550  0.16760  Biso   1.000  C
  C28      1.0000 0.89300  0.81450  0.83240  Biso   1.000  C
  C29      1.0000 0.74000  0.34500  0.29500  Biso   1.000  C
  C30      1.0000 0.26000  0.65500  0.70500  Biso   1.000  C
  C31      1.0000 0.24000  0.15500  0.20500  Biso   1.000  C
  C32      1.0000 0.76000  0.84500  0.79500  Biso   1.000  C
  C33      1.0000 0.92500  0.38520  0.32850  Biso   1.000  C
  C34      1.0000 0.07500  0.61480  0.67150  Biso   1.000  C
  C35      1.0000 0.42500  0.11480  0.17150  Biso   1.000  C
  C36      1.0000 0.57500  0.88520  0.82850  Biso   1.000  C
  C37      1.0000 0.97700  0.39760  0.40000  Biso   1.000  C
  C38      1.0000 0.02300  0.60240  0.60000  Biso   1.000  C
  C39      1.0000 0.47700  0.10240  0.10000  Biso   1.000  C
  C40      1.0000 0.52300  0.89760  0.90000  Biso   1.000  C
  C41      1.0000 0.93300  0.38730  0.21450  Biso   1.000  C
  C42      1.0000 0.06700  0.61270  0.78550  Biso   1.000  C
  C43      1.0000 0.43300  0.11270  0.28550  Biso   1.000  C
  C44      1.0000 0.56700  0.88730  0.71450  Biso   1.000  C
  C45      1.0000 0.98000  0.39860  0.15020  Biso   1.000  C
  C46      1.0000 0.02000  0.60140  0.84980  Biso   1.000  C
  C47      1.0000 0.48000  0.10140  0.34980  Biso   1.000  C
  C48      1.0000 0.52000  0.89860  0.65020  Biso   1.000  C
  C49      1.0000 0.83900  0.36850  0.09380  Biso   1.000  C
  C50      1.0000 0.16100  0.63150  0.90620  Biso   1.000  C
  C51      1.0000 0.33900  0.13150  0.40620  Biso   1.000  C
  C52      1.0000 0.66100  0.86850  0.59380  Biso   1.000  C
  C53      1.0000 0.65900  0.32960  0.10070  Biso   1.000  C
  C54      1.0000 0.34100  0.67040  0.89930  Biso   1.000  C
  C55      1.0000 0.15900  0.17040  0.39930  Biso   1.000  C
  C56      1.0000 0.84100  0.82960  0.60070  Biso   1.000  C
  C57      1.0000 0.60700  0.31850  0.16520  Biso   1.000  C
  C58      1.0000 0.39300  0.68150  0.83480  Biso   1.000  C
  C59      1.0000 0.10700  0.18150  0.33480  Biso   1.000  C
  C60      1.0000 0.89300  0.81850  0.66520  Biso   1.000  C
  C61      1.0000 0.74700  0.34780  0.22180  Biso   1.000  C
  C62      1.0000 0.25300  0.65220  0.77820  Biso   1.000  C
  C63      1.0000 0.24700  0.15220  0.27820  Biso   1.000  C
  C64      1.0000 0.75300  0.84780  0.72180  Biso   1.000  C
  C65      1.0000 0.01500  0.89490  0.22980  Biso   1.000  C
  C66      1.0000 0.98500  0.10510  0.77020  Biso   1.000  C
  C67      1.0000 0.51500  0.60510  0.27020  Biso   1.000  C
  C68      1.0000 0.48500  0.39490  0.72980  Biso   1.000  C
  C69      1.0000 0.19500  0.92120  0.20770  Biso   1.000  C
  C70      1.0000 0.80500  0.07880  0.79230  Biso   1.000  C
  C71      1.0000 0.69500  0.57880  0.29230  Biso   1.000  C
  C72      1.0000 0.30500  0.42120  0.70770  Biso   1.000  C
  C73      1.0000 0.25300  0.89070  0.13450  Biso   1.000  C
  C74      1.0000 0.74700  0.10930  0.86550  Biso   1.000  C
  C75      1.0000 0.75300  0.60930  0.36550  Biso   1.000  C
  C76      1.0000 0.24700  0.39070  0.63450  Biso   1.000  C
  C77      1.0000 0.13300  0.83450  0.08540  Biso   1.000  C
  C78      1.0000 0.86700  0.16550  0.91460  Biso   1.000  C
  C79      1.0000 0.63300  0.66550  0.41460  Biso   1.000  C
  C80      1.0000 0.36700  0.33450  0.58540  Biso   1.000  C
  C81      1.0000 0.80100  0.74840  0.06510  Biso   1.000  C
  C82      1.0000 0.19900  0.25160  0.93490  Biso   1.000  C
  C83      1.0000 0.30100  0.75160  0.43490  Biso   1.000  C
  C84      1.0000 0.69900  0.24840  0.56510  Biso   1.000  C
  C85      1.0000 0.62500  0.72810  0.09460  Biso   1.000  C
  C86      1.0000 0.37500  0.27190  0.90540  Biso   1.000  C
  C87      1.0000 0.12500  0.77190  0.40540  Biso   1.000  C
  C88      1.0000 0.87500  0.22810  0.59460  Biso   1.000  C
  C89      1.0000 0.57500  0.76310  0.16830  Biso   1.000  C
  C90      1.0000 0.42500  0.23690  0.83170  Biso   1.000  C
  C91      1.0000 0.07500  0.73690  0.33170  Biso   1.000  C
  C92      1.0000 0.92500  0.26310  0.66830  Biso   1.000  C
  C93      1.0000 0.71100  0.81820  0.20980  Biso   1.000  C
  C94      1.0000 0.28900  0.18180  0.79020  Biso   1.000  C
  C95      1.0000 0.21100  0.68180  0.29020  Biso   1.000  C
  C96      1.0000 0.78900  0.31820  0.70980  Biso   1.000  C
  C97      1.0000 0.89300  0.83790  0.17970  Biso   1.000  C
  C98      1.0000 0.10700  0.16210  0.82030  Biso   1.000  C
  C99      1.0000 0.39300  0.66210  0.32030  Biso   1.000  C
  C100     1.0000 0.60700  0.33790  0.67970  Biso   1.000  C
  C101     1.0000 0.94400  0.80650  0.10670  Biso   1.000  C
  C102     1.0000 0.05600  0.19350  0.89330  Biso   1.000  C
  C103     1.0000 0.44400  0.69350  0.39330  Biso   1.000  C
  C104     1.0000 0.55600  0.30650  0.60670  Biso   1.000  C
  C105     1.0000 0.89900  0.91250  0.29830  Biso   1.000  C
  C106     1.0000 0.10100  0.08750  0.70170  Biso   1.000  C
  C107     1.0000 0.39900  0.58750  0.20170  Biso   1.000  C
  C108     1.0000 0.60100  0.41250  0.79830  Biso   1.000  C
  C109     1.0000 0.94500  0.96290  0.36530  Biso   1.000  C
  C110     1.0000 0.05500  0.03710  0.63470  Biso   1.000  C
  C111     1.0000 0.44500  0.53710  0.13470  Biso   1.000  C
  C112     1.0000 0.55500  0.46290  0.86530  Biso   1.000  C
  C113     1.0000 0.80100  0.96860  0.42040  Biso   1.000  C
  C114     1.0000 0.19900  0.03140  0.57960  Biso   1.000  C
  C115     1.0000 0.30100  0.53140  0.07960  Biso   1.000  C
  C116     1.0000 0.69900  0.46860  0.92040  Biso   1.000  C
  C117     1.0000 0.61700  0.92470  0.40890  Biso   1.000  C
  C118     1.0000 0.38300  0.07530  0.59110  Biso   1.000  C
  C119     1.0000 0.11700  0.57530  0.09110  Biso   1.000  C
  C120     1.0000 0.88300  0.42470  0.90890  Biso   1.000  C
  C121     1.0000 0.57100  0.87260  0.34080  Biso   1.000  C
  C122     1.0000 0.42900  0.12740  0.65920  Biso   1.000  C
  C123     1.0000 0.07100  0.62740  0.15920  Biso   1.000  C
  C124     1.0000 0.92900  0.37260  0.84080  Biso   1.000  C
  C125     1.0000 0.71100  0.86680  0.28520  Biso   1.000  C
  C126     1.0000 0.28900  0.13320  0.71480  Biso   1.000  C
  C127     1.0000 0.21100  0.63320  0.21480  Biso   1.000  C
  C128     1.0000 0.78900  0.36680  0.78520  Biso   1.000  C
