data_image0
_cell_length_a       5.682
_cell_length_b       17.586
_cell_length_c       17.764
_cell_angle_alpha    90
_cell_angle_beta     90
_cell_angle_gamma    91.44

_symmetry_space_group_name_H-M    "P 1"
_symmetry_int_tables_number       1

loop_
  _symmetry_equiv_pos_as_xyz
  'x, y, z'

loop_
  _atom_site_label
  _atom_site_occupancy
  _atom_site_fract_x
  _atom_site_fract_y
  _atom_site_fract_z
  _atom_site_thermal_displace_type
  _atom_site_B_iso_or_equiv
  _atom_site_type_symbol
  H1       1.0000 0.64822  0.60086  0.76623  Biso   1.000  H
  H2       1.0000 0.35178  0.39914  0.23377  Biso   1.000  H
  H3       1.0000 0.85178  0.89914  0.26623  Biso   1.000  H
  H4       1.0000 0.14822  0.10086  0.73377  Biso   1.000  H
  H5       1.0000 0.63644  0.48065  0.70104  Biso   1.000  H
  H6       1.0000 0.36356  0.51935  0.29896  Biso   1.000  H
  H7       1.0000 0.86356  0.01935  0.20104  Biso   1.000  H
  H8       1.0000 0.13644  0.98065  0.79896  Biso   1.000  H
  H9       1.0000 0.76583  0.57756  0.60228  Biso   1.000  H
  H10      1.0000 0.23417  0.42244  0.39772  Biso   1.000  H
  H11      1.0000 0.73417  0.92244  0.10228  Biso   1.000  H
  H12      1.0000 0.26583  0.07756  0.89772  Biso   1.000  H
  H13      1.0000 0.67409  0.64881  0.48604  Biso   1.000  H
  H14      1.0000 0.32591  0.35119  0.51396  Biso   1.000  H
  H15      1.0000 0.82591  0.85119  0.98604  Biso   1.000  H
  H16      1.0000 0.17409  0.14881  0.01396  Biso   1.000  H
  H17      1.0000 0.33244  0.73144  0.48048  Biso   1.000  H
  H18      1.0000 0.66756  0.26856  0.51952  Biso   1.000  H
  H19      1.0000 0.16756  0.76856  0.98048  Biso   1.000  H
  H20      1.0000 0.83244  0.23144  0.01952  Biso   1.000  H
  H21      1.0000 0.07607  0.74628  0.59168  Biso   1.000  H
  H22      1.0000 0.92393  0.25372  0.40832  Biso   1.000  H
  H23      1.0000 0.42393  0.75372  0.09168  Biso   1.000  H
  H24      1.0000 0.57607  0.24628  0.90832  Biso   1.000  H
  H25      1.0000 0.29946  0.57134  0.89184  Biso   1.000  H
  H26      1.0000 0.70054  0.42866  0.10816  Biso   1.000  H
  H27      1.0000 0.20054  0.92866  0.39184  Biso   1.000  H
  H28      1.0000 0.79946  0.07134  0.60816  Biso   1.000  H
  H29      1.0000 0.96820  0.64559  0.93962  Biso   1.000  H
  H30      1.0000 0.03180  0.35441  0.06038  Biso   1.000  H
  H31      1.0000 0.53180  0.85441  0.43962  Biso   1.000  H
  H32      1.0000 0.46820  0.14559  0.56038  Biso   1.000  H
  H33      1.0000 0.76487  0.73577  0.85680  Biso   1.000  H
  H34      1.0000 0.23513  0.26423  0.14320  Biso   1.000  H
  H35      1.0000 0.73513  0.76423  0.35680  Biso   1.000  H
  H36      1.0000 0.26487  0.23577  0.64320  Biso   1.000  H
  H37      1.0000 0.88696  0.75166  0.72396  Biso   1.000  H
  H38      1.0000 0.11304  0.24834  0.27604  Biso   1.000  H
  H39      1.0000 0.61304  0.74834  0.22396  Biso   1.000  H
  H40      1.0000 0.38696  0.25166  0.77604  Biso   1.000  H
  H41      1.0000 0.24799  0.50194  0.58767  Biso   1.000  H
  H42      1.0000 0.75201  0.49806  0.41233  Biso   1.000  H
  H43      1.0000 0.25201  0.99806  0.08767  Biso   1.000  H
  H44      1.0000 0.74799  0.00194  0.91233  Biso   1.000  H
  H45      1.0000 0.90167  0.41976  0.55302  Biso   1.000  H
  H46      1.0000 0.09833  0.58024  0.44698  Biso   1.000  H
  H47      1.0000 0.59833  0.08024  0.05302  Biso   1.000  H
  H48      1.0000 0.40167  0.91976  0.94698  Biso   1.000  H
  H49      1.0000 0.73031  0.32915  0.64489  Biso   1.000  H
  H50      1.0000 0.26969  0.67085  0.35511  Biso   1.000  H
  H51      1.0000 0.76969  0.17085  0.14489  Biso   1.000  H
  H52      1.0000 0.23031  0.82915  0.85511  Biso   1.000  H
  H53      1.0000 0.89504  0.31933  0.77262  Biso   1.000  H
  H54      1.0000 0.10496  0.68067  0.22738  Biso   1.000  H
  H55      1.0000 0.60496  0.18067  0.27262  Biso   1.000  H
  H56      1.0000 0.39504  0.81933  0.72738  Biso   1.000  H
  H57      1.0000 0.81029  0.50881  0.85871  Biso   1.000  H
  H58      1.0000 0.18971  0.49119  0.14129  Biso   1.000  H
  H59      1.0000 0.68971  0.99119  0.35871  Biso   1.000  H
  H60      1.0000 0.31029  0.00881  0.64129  Biso   1.000  H
  H61      1.0000 0.75751  0.44197  0.97980  Biso   1.000  H
  H62      1.0000 0.24249  0.55803  0.02020  Biso   1.000  H
  H63      1.0000 0.74249  0.05803  0.47980  Biso   1.000  H
  H64      1.0000 0.25751  0.94197  0.52020  Biso   1.000  H
  H65      1.0000 0.41707  0.35575  0.00068  Biso   1.000  H
  H66      1.0000 0.58293  0.64425  0.99932  Biso   1.000  H
  H67      1.0000 0.08293  0.14425  0.50068  Biso   1.000  H
  H68      1.0000 0.91707  0.85575  0.49932  Biso   1.000  H
  H69      1.0000 0.12336  0.33205  0.89978  Biso   1.000  H
  H70      1.0000 0.87664  0.66795  0.10022  Biso   1.000  H
  H71      1.0000 0.37664  0.16795  0.39978  Biso   1.000  H
  H72      1.0000 0.62336  0.83205  0.60022  Biso   1.000  H
  C1       1.0000 0.48180  0.58348  0.73852  Biso   1.000  C
  C2       1.0000 0.51820  0.41652  0.26148  Biso   1.000  C
  C3       1.0000 0.01820  0.91652  0.23852  Biso   1.000  C
  C4       1.0000 0.98180  0.08348  0.76148  Biso   1.000  C
  C5       1.0000 0.48060  0.49592  0.73424  Biso   1.000  C
  C6       1.0000 0.51940  0.50408  0.26576  Biso   1.000  C
  C7       1.0000 0.01940  0.00408  0.23424  Biso   1.000  C
  C8       1.0000 0.98060  0.99592  0.76576  Biso   1.000  C
  C9       1.0000 0.27770  0.66945  0.65969  Biso   1.000  C
  C10      1.0000 0.72230  0.33055  0.34031  Biso   1.000  C
  C11      1.0000 0.22230  0.83055  0.15969  Biso   1.000  C
  C12      1.0000 0.77770  0.16945  0.84031  Biso   1.000  C
  C13      1.0000 0.46840  0.62171  0.66234  Biso   1.000  C
  C14      1.0000 0.53160  0.37829  0.33766  Biso   1.000  C
  C15      1.0000 0.03160  0.87829  0.16234  Biso   1.000  C
  C16      1.0000 0.96840  0.12171  0.83766  Biso   1.000  C
  C17      1.0000 0.61350  0.61405  0.60050  Biso   1.000  C
  C18      1.0000 0.38650  0.38595  0.39950  Biso   1.000  C
  C19      1.0000 0.88650  0.88595  0.10050  Biso   1.000  C
  C20      1.0000 0.11350  0.11405  0.89950  Biso   1.000  C
  C21      1.0000 0.56130  0.65434  0.53531  Biso   1.000  C
  C22      1.0000 0.43870  0.34566  0.46469  Biso   1.000  C
  C23      1.0000 0.93870  0.84566  0.03531  Biso   1.000  C
  C24      1.0000 0.06130  0.15434  0.96469  Biso   1.000  C
  C25      1.0000 0.37080  0.70077  0.53218  Biso   1.000  C
  C26      1.0000 0.62920  0.29923  0.46782  Biso   1.000  C
  C27      1.0000 0.12920  0.79923  0.03218  Biso   1.000  C
  C28      1.0000 0.87080  0.20077  0.96782  Biso   1.000  C
  C29      1.0000 0.22630  0.70914  0.59409  Biso   1.000  C
  C30      1.0000 0.77370  0.29086  0.40591  Biso   1.000  C
  C31      1.0000 0.27370  0.79086  0.09409  Biso   1.000  C
  C32      1.0000 0.72630  0.20914  0.90591  Biso   1.000  C
  C33      1.0000 0.16190  0.66917  0.73323  Biso   1.000  C
  C34      1.0000 0.83810  0.33083  0.26677  Biso   1.000  C
  C35      1.0000 0.33810  0.83083  0.23323  Biso   1.000  C
  C36      1.0000 0.66190  0.16917  0.76677  Biso   1.000  C
  C37      1.0000 0.27870  0.61855  0.78026  Biso   1.000  C
  C38      1.0000 0.72130  0.38145  0.21974  Biso   1.000  C
  C39      1.0000 0.22130  0.88145  0.28026  Biso   1.000  C
  C40      1.0000 0.77870  0.11855  0.71974  Biso   1.000  C
  C41      1.0000 0.20920  0.61023  0.85461  Biso   1.000  C
  C42      1.0000 0.79080  0.38977  0.14539  Biso   1.000  C
  C43      1.0000 0.29080  0.88977  0.35461  Biso   1.000  C
  C44      1.0000 0.70920  0.11023  0.64539  Biso   1.000  C
  C45      1.0000 0.02400  0.65223  0.88121  Biso   1.000  C
  C46      1.0000 0.97600  0.34777  0.11879  Biso   1.000  C
  C47      1.0000 0.47600  0.84777  0.38121  Biso   1.000  C
  C48      1.0000 0.52400  0.15223  0.61879  Biso   1.000  C
  C49      1.0000 0.90980  0.70275  0.83488  Biso   1.000  C
  C50      1.0000 0.09020  0.29725  0.16512  Biso   1.000  C
  C51      1.0000 0.59020  0.79725  0.33488  Biso   1.000  C
  C52      1.0000 0.40980  0.20275  0.66512  Biso   1.000  C
  C53      1.0000 0.97700  0.71176  0.76018  Biso   1.000  C
  C54      1.0000 0.02300  0.28824  0.23982  Biso   1.000  C
  C55      1.0000 0.52300  0.78824  0.26018  Biso   1.000  C
  C56      1.0000 0.47700  0.21176  0.73982  Biso   1.000  C
  C57      1.0000 0.16420  0.40572  0.75238  Biso   1.000  C
  C58      1.0000 0.83580  0.59428  0.24762  Biso   1.000  C
  C59      1.0000 0.33580  0.09428  0.25238  Biso   1.000  C
  C60      1.0000 0.66420  0.90572  0.74762  Biso   1.000  C
  C61      1.0000 0.26350  0.45699  0.70063  Biso   1.000  C
  C62      1.0000 0.73650  0.54301  0.29937  Biso   1.000  C
  C63      1.0000 0.23650  0.04301  0.20063  Biso   1.000  C
  C64      1.0000 0.76350  0.95699  0.79937  Biso   1.000  C
  C65      1.0000 0.17040  0.46278  0.62880  Biso   1.000  C
  C66      1.0000 0.82960  0.53722  0.37120  Biso   1.000  C
  C67      1.0000 0.32960  0.03722  0.12880  Biso   1.000  C
  C68      1.0000 0.67040  0.96278  0.87120  Biso   1.000  C
  C69      1.0000 0.97710  0.41632  0.60935  Biso   1.000  C
  C70      1.0000 0.02290  0.58368  0.39065  Biso   1.000  C
  C71      1.0000 0.52290  0.08368  0.10935  Biso   1.000  C
  C72      1.0000 0.47710  0.91632  0.89065  Biso   1.000  C
  C73      1.0000 0.88110  0.36517  0.66078  Biso   1.000  C
  C74      1.0000 0.11890  0.63483  0.33922  Biso   1.000  C
  C75      1.0000 0.61890  0.13483  0.16078  Biso   1.000  C
  C76      1.0000 0.38110  0.86517  0.83922  Biso   1.000  C
  C77      1.0000 0.97270  0.35958  0.73253  Biso   1.000  C
  C78      1.0000 0.02730  0.64042  0.26747  Biso   1.000  C
  C79      1.0000 0.52730  0.14042  0.23253  Biso   1.000  C
  C80      1.0000 0.47270  0.85958  0.76747  Biso   1.000  C
  C81      1.0000 0.30240  0.40869  0.82202  Biso   1.000  C
  C82      1.0000 0.69760  0.59131  0.17798  Biso   1.000  C
  C83      1.0000 0.19760  0.09131  0.32202  Biso   1.000  C
  C84      1.0000 0.80240  0.90869  0.67798  Biso   1.000  C
  C85      1.0000 0.49280  0.45918  0.81118  Biso   1.000  C
  C86      1.0000 0.50720  0.54082  0.18882  Biso   1.000  C
  C87      1.0000 0.00720  0.04082  0.31118  Biso   1.000  C
  C88      1.0000 0.99280  0.95918  0.68882  Biso   1.000  C
  C89      1.0000 0.65870  0.47059  0.86734  Biso   1.000  C
  C90      1.0000 0.34130  0.52941  0.13266  Biso   1.000  C
  C91      1.0000 0.84130  0.02941  0.36734  Biso   1.000  C
  C92      1.0000 0.15870  0.97059  0.63266  Biso   1.000  C
  C93      1.0000 0.62860  0.43283  0.93510  Biso   1.000  C
  C94      1.0000 0.37140  0.56717  0.06490  Biso   1.000  C
  C95      1.0000 0.87140  0.06717  0.43510  Biso   1.000  C
  C96      1.0000 0.12860  0.93283  0.56490  Biso   1.000  C
  C97      1.0000 0.43740  0.38443  0.94648  Biso   1.000  C
  C98      1.0000 0.56260  0.61557  0.05352  Biso   1.000  C
  C99      1.0000 0.06260  0.11557  0.44648  Biso   1.000  C
  C100     1.0000 0.93740  0.88443  0.55352  Biso   1.000  C
  C101     1.0000 0.27250  0.37121  0.89051  Biso   1.000  C
  C102     1.0000 0.72750  0.62879  0.10949  Biso   1.000  C
  C103     1.0000 0.22750  0.12879  0.39051  Biso   1.000  C
  C104     1.0000 0.77250  0.87121  0.60949  Biso   1.000  C
