data_image0
_cell_length_a       9.797
_cell_length_b       13.7897
_cell_length_c       15.0121
_cell_angle_alpha    95.589
_cell_angle_beta     90
_cell_angle_gamma    90

_symmetry_space_group_name_H-M    "P 1"
_symmetry_int_tables_number       1

loop_
  _symmetry_equiv_pos_as_xyz
  'x, y, z'

loop_
  _atom_site_label
  _atom_site_occupancy
  _atom_site_fract_x
  _atom_site_fract_y
  _atom_site_fract_z
  _atom_site_thermal_displace_type
  _atom_site_B_iso_or_equiv
  _atom_site_type_symbol
  H1       1.0000 0.43899  0.92921  0.64034  Biso   1.000  H
  H2       1.0000 0.56101  0.07079  0.35966  Biso   1.000  H
  H3       1.0000 0.93899  0.57079  0.35966  Biso   1.000  H
  H4       1.0000 0.06101  0.42921  0.64034  Biso   1.000  H
  H5       1.0000 0.27697  0.95395  0.38021  Biso   1.000  H
  H6       1.0000 0.72303  0.04605  0.61979  Biso   1.000  H
  H7       1.0000 0.77697  0.54605  0.61979  Biso   1.000  H
  H8       1.0000 0.22303  0.45395  0.38021  Biso   1.000  H
  H9       1.0000 0.15830  0.01913  0.30333  Biso   1.000  H
  H10      1.0000 0.84170  0.98087  0.69667  Biso   1.000  H
  H11      1.0000 0.65830  0.48087  0.69667  Biso   1.000  H
  H12      1.0000 0.34170  0.51913  0.30333  Biso   1.000  H
  H13      1.0000 0.96728  0.24399  0.82165  Biso   1.000  H
  H14      1.0000 0.03272  0.75601  0.17835  Biso   1.000  H
  H15      1.0000 0.46728  0.25601  0.17835  Biso   1.000  H
  H16      1.0000 0.53272  0.74399  0.82165  Biso   1.000  H
  H17      1.0000 0.81010  0.28214  0.56314  Biso   1.000  H
  H18      1.0000 0.18990  0.71786  0.43686  Biso   1.000  H
  H19      1.0000 0.31010  0.21786  0.43686  Biso   1.000  H
  H20      1.0000 0.68990  0.78214  0.56314  Biso   1.000  H
  H21      1.0000 0.43467  0.87838  0.47838  Biso   1.000  H
  H22      1.0000 0.56533  0.12162  0.52162  Biso   1.000  H
  H23      1.0000 0.93467  0.62162  0.52162  Biso   1.000  H
  H24      1.0000 0.06533  0.37838  0.47838  Biso   1.000  H
  H25      1.0000 0.98870  0.05671  0.88089  Biso   1.000  H
  H26      1.0000 0.01130  0.94329  0.11911  Biso   1.000  H
  H27      1.0000 0.48870  0.44329  0.11911  Biso   1.000  H
  H28      1.0000 0.51130  0.55671  0.88089  Biso   1.000  H
  H29      1.0000 0.34000  0.24060  0.87817  Biso   1.000  H
  H30      1.0000 0.66000  0.75940  0.12183  Biso   1.000  H
  H31      1.0000 0.84000  0.25940  0.12183  Biso   1.000  H
  H32      1.0000 0.16000  0.74060  0.87817  Biso   1.000  H
  H33      1.0000 0.80249  0.31850  0.72545  Biso   1.000  H
  H34      1.0000 0.19751  0.68150  0.27455  Biso   1.000  H
  H35      1.0000 0.30249  0.18150  0.27455  Biso   1.000  H
  H36      1.0000 0.69751  0.81850  0.72545  Biso   1.000  H
  H37      1.0000 0.82489  0.25914  0.43605  Biso   1.000  H
  H38      1.0000 0.17511  0.74086  0.56395  Biso   1.000  H
  H39      1.0000 0.32489  0.24086  0.56395  Biso   1.000  H
  H40      1.0000 0.67511  0.75914  0.43605  Biso   1.000  H
  H41      1.0000 0.82968  0.21739  0.27516  Biso   1.000  H
  H42      1.0000 0.17032  0.78261  0.72484  Biso   1.000  H
  H43      1.0000 0.32968  0.28261  0.72484  Biso   1.000  H
  H44      1.0000 0.67032  0.71739  0.27516  Biso   1.000  H
  H45      1.0000 0.31350  0.28574  0.04007  Biso   1.000  H
  H46      1.0000 0.68650  0.71426  0.95993  Biso   1.000  H
  H47      1.0000 0.81350  0.21426  0.95993  Biso   1.000  H
  H48      1.0000 0.18650  0.78574  0.04007  Biso   1.000  H
  H49      1.0000 0.96475  0.09896  0.04333  Biso   1.000  H
  H50      1.0000 0.03525  0.90104  0.95667  Biso   1.000  H
  H51      1.0000 0.46475  0.40104  0.95667  Biso   1.000  H
  H52      1.0000 0.53525  0.59896  0.04333  Biso   1.000  H
  H53      1.0000 0.12594  0.21662  0.12367  Biso   1.000  H
  H54      1.0000 0.87406  0.78338  0.87633  Biso   1.000  H
  H55      1.0000 0.62594  0.28338  0.87633  Biso   1.000  H
  H56      1.0000 0.37406  0.71662  0.12367  Biso   1.000  H
  H57      1.0000 0.99860  0.09616  0.20789  Biso   1.000  H
  H58      1.0000 0.00140  0.90384  0.79211  Biso   1.000  H
  H59      1.0000 0.49860  0.40384  0.79211  Biso   1.000  H
  H60      1.0000 0.50140  0.59616  0.20789  Biso   1.000  H
  H61      1.0000 0.53115  0.12934  0.72689  Biso   1.000  H
  H62      1.0000 0.46885  0.87066  0.27311  Biso   1.000  H
  H63      1.0000 0.03115  0.37066  0.27311  Biso   1.000  H
  H64      1.0000 0.96885  0.62934  0.72689  Biso   1.000  H
  H65      1.0000 0.28188  0.92819  0.85425  Biso   1.000  H
  H66      1.0000 0.71812  0.07181  0.14575  Biso   1.000  H
  H67      1.0000 0.78188  0.57181  0.14575  Biso   1.000  H
  H68      1.0000 0.21812  0.42819  0.85425  Biso   1.000  H
  H69      1.0000 0.72902  0.08655  0.81770  Biso   1.000  H
  H70      1.0000 0.27098  0.91345  0.18230  Biso   1.000  H
  H71      1.0000 0.22902  0.41345  0.18230  Biso   1.000  H
  H72      1.0000 0.77098  0.58655  0.81770  Biso   1.000  H
  H73      1.0000 0.47918  0.88519  0.94487  Biso   1.000  H
  H74      1.0000 0.52082  0.11481  0.05513  Biso   1.000  H
  H75      1.0000 0.97918  0.61481  0.05513  Biso   1.000  H
  H76      1.0000 0.02082  0.38519  0.94487  Biso   1.000  H
  H77      1.0000 0.70221  0.96447  0.92772  Biso   1.000  H
  H78      1.0000 0.29779  0.03553  0.07228  Biso   1.000  H
  H79      1.0000 0.20221  0.53553  0.07228  Biso   1.000  H
  H80      1.0000 0.79779  0.46447  0.92772  Biso   1.000  H
  C1       1.0000 0.07799  0.14121  0.61809  Biso   1.000  C
  C2       1.0000 0.92201  0.85879  0.38191  Biso   1.000  C
  C3       1.0000 0.57799  0.35879  0.38191  Biso   1.000  C
  C4       1.0000 0.42201  0.64121  0.61809  Biso   1.000  C
  C5       1.0000 0.17887  0.07431  0.57923  Biso   1.000  C
  C6       1.0000 0.82113  0.92569  0.42077  Biso   1.000  C
  C7       1.0000 0.67887  0.42569  0.42077  Biso   1.000  C
  C8       1.0000 0.32113  0.57431  0.57923  Biso   1.000  C
  C9       1.0000 0.17404  0.12098  0.76845  Biso   1.000  C
  C10      1.0000 0.82596  0.87902  0.23155  Biso   1.000  C
  C11      1.0000 0.67404  0.37902  0.23155  Biso   1.000  C
  C12      1.0000 0.32596  0.62098  0.76845  Biso   1.000  C
  C13      1.0000 0.07233  0.16214  0.71280  Biso   1.000  C
  C14      1.0000 0.92767  0.83786  0.28720  Biso   1.000  C
  C15      1.0000 0.57233  0.33786  0.28720  Biso   1.000  C
  C16      1.0000 0.42767  0.66214  0.71280  Biso   1.000  C
  C17      1.0000 0.98307  0.18545  0.56311  Biso   1.000  C
  C18      1.0000 0.01693  0.81455  0.43689  Biso   1.000  C
  C19      1.0000 0.48307  0.31455  0.43689  Biso   1.000  C
  C20      1.0000 0.51693  0.68545  0.56311  Biso   1.000  C
  C21      1.0000 0.27590  0.03361  0.63515  Biso   1.000  C
  C22      1.0000 0.72410  0.96639  0.36485  Biso   1.000  C
  C23      1.0000 0.77590  0.46639  0.36485  Biso   1.000  C
  C24      1.0000 0.22410  0.53361  0.63515  Biso   1.000  C
  C25      1.0000 0.18088  0.04745  0.48515  Biso   1.000  C
  C26      1.0000 0.81912  0.95255  0.51485  Biso   1.000  C
  C27      1.0000 0.68088  0.45255  0.51485  Biso   1.000  C
  C28      1.0000 0.31912  0.54745  0.48515  Biso   1.000  C
  C29      1.0000 0.27604  0.06324  0.73077  Biso   1.000  C
  C30      1.0000 0.72396  0.93676  0.26923  Biso   1.000  C
  C31      1.0000 0.77604  0.43676  0.26923  Biso   1.000  C
  C32      1.0000 0.22396  0.56324  0.73077  Biso   1.000  C
  C33      1.0000 0.08519  0.09395  0.42766  Biso   1.000  C
  C34      1.0000 0.91481  0.90605  0.57234  Biso   1.000  C
  C35      1.0000 0.58519  0.40605  0.57234  Biso   1.000  C
  C36      1.0000 0.41481  0.59395  0.42766  Biso   1.000  C
  C37      1.0000 0.16527  0.14630  0.86782  Biso   1.000  C
  C38      1.0000 0.83473  0.85370  0.13218  Biso   1.000  C
  C39      1.0000 0.66527  0.35370  0.13218  Biso   1.000  C
  C40      1.0000 0.33473  0.64630  0.86782  Biso   1.000  C
  C41      1.0000 0.98945  0.16258  0.46548  Biso   1.000  C
  C42      1.0000 0.01055  0.83742  0.53452  Biso   1.000  C
  C43      1.0000 0.48945  0.33742  0.53452  Biso   1.000  C
  C44      1.0000 0.51055  0.66258  0.46548  Biso   1.000  C
  C45      1.0000 0.36681  0.96270  0.59757  Biso   1.000  C
  C46      1.0000 0.63319  0.03730  0.40243  Biso   1.000  C
  C47      1.0000 0.86681  0.53730  0.40243  Biso   1.000  C
  C48      1.0000 0.13319  0.46270  0.59757  Biso   1.000  C
  C49      1.0000 0.27447  0.97717  0.45150  Biso   1.000  C
  C50      1.0000 0.72553  0.02283  0.54850  Biso   1.000  C
  C51      1.0000 0.77447  0.52283  0.54850  Biso   1.000  C
  C52      1.0000 0.22553  0.47717  0.45150  Biso   1.000  C
  C53      1.0000 0.08604  0.07221  0.33388  Biso   1.000  C
  C54      1.0000 0.91396  0.92779  0.66612  Biso   1.000  C
  C55      1.0000 0.58604  0.42779  0.66612  Biso   1.000  C
  C56      1.0000 0.41396  0.57221  0.33388  Biso   1.000  C
  C57      1.0000 0.97131  0.22596  0.74959  Biso   1.000  C
  C58      1.0000 0.02869  0.77404  0.25041  Biso   1.000  C
  C59      1.0000 0.47131  0.27404  0.25041  Biso   1.000  C
  C60      1.0000 0.52869  0.72596  0.74959  Biso   1.000  C
  C61      1.0000 0.88497  0.24816  0.60353  Biso   1.000  C
  C62      1.0000 0.11503  0.75184  0.39647  Biso   1.000  C
  C63      1.0000 0.38497  0.25184  0.39647  Biso   1.000  C
  C64      1.0000 0.61503  0.74816  0.60353  Biso   1.000  C
  C65      1.0000 0.36441  0.93422  0.50682  Biso   1.000  C
  C66      1.0000 0.63559  0.06578  0.49318  Biso   1.000  C
  C67      1.0000 0.86441  0.56578  0.49318  Biso   1.000  C
  C68      1.0000 0.13559  0.43422  0.50682  Biso   1.000  C
  C69      1.0000 0.06123  0.10683  0.91601  Biso   1.000  C
  C70      1.0000 0.93877  0.89317  0.08399  Biso   1.000  C
  C71      1.0000 0.56123  0.39317  0.08399  Biso   1.000  C
  C72      1.0000 0.43877  0.60683  0.91601  Biso   1.000  C
  C73      1.0000 0.25625  0.20997  0.91412  Biso   1.000  C
  C74      1.0000 0.74375  0.79003  0.08588  Biso   1.000  C
  C75      1.0000 0.75625  0.29003  0.08588  Biso   1.000  C
  C76      1.0000 0.24375  0.70997  0.91412  Biso   1.000  C
  C77      1.0000 0.87926  0.26820  0.69567  Biso   1.000  C
  C78      1.0000 0.12074  0.73180  0.30433  Biso   1.000  C
  C79      1.0000 0.37926  0.23180  0.30433  Biso   1.000  C
  C80      1.0000 0.62074  0.76820  0.69567  Biso   1.000  C
  C81      1.0000 0.90001  0.20665  0.40835  Biso   1.000  C
  C82      1.0000 0.09999  0.79335  0.59165  Biso   1.000  C
  C83      1.0000 0.40001  0.29335  0.59165  Biso   1.000  C
  C84      1.0000 0.59999  0.70665  0.40835  Biso   1.000  C
  C85      1.0000 0.90277  0.18346  0.31706  Biso   1.000  C
  C86      1.0000 0.09723  0.81654  0.68294  Biso   1.000  C
  C87      1.0000 0.40277  0.31654  0.68294  Biso   1.000  C
  C88      1.0000 0.59723  0.68346  0.31706  Biso   1.000  C
  C89      1.0000 0.24149  0.23520  0.00533  Biso   1.000  C
  C90      1.0000 0.75851  0.76480  0.99467  Biso   1.000  C
  C91      1.0000 0.74149  0.26480  0.99467  Biso   1.000  C
  C92      1.0000 0.25851  0.73520  0.00533  Biso   1.000  C
  C93      1.0000 0.04738  0.13126  0.00755  Biso   1.000  C
  C94      1.0000 0.95262  0.86874  0.99245  Biso   1.000  C
  C95      1.0000 0.54738  0.36874  0.99245  Biso   1.000  C
  C96      1.0000 0.45262  0.63126  0.00755  Biso   1.000  C
  C97      1.0000 0.13694  0.19615  0.05205  Biso   1.000  C
  C98      1.0000 0.86306  0.80385  0.94795  Biso   1.000  C
  C99      1.0000 0.63694  0.30385  0.94795  Biso   1.000  C
  C100     1.0000 0.36306  0.69615  0.05205  Biso   1.000  C
  C101     1.0000 0.39318  0.03216  0.78527  Biso   1.000  C
  C102     1.0000 0.60682  0.96784  0.21473  Biso   1.000  C
  C103     1.0000 0.89318  0.46784  0.21473  Biso   1.000  C
  C104     1.0000 0.10682  0.53216  0.78527  Biso   1.000  C
  C105     1.0000 0.99657  0.11588  0.27995  Biso   1.000  C
  C106     1.0000 0.00343  0.88412  0.72005  Biso   1.000  C
  C107     1.0000 0.49657  0.38412  0.72005  Biso   1.000  C
  C108     1.0000 0.50343  0.61588  0.27995  Biso   1.000  C
  C109     1.0000 0.52021  0.07516  0.77473  Biso   1.000  C
  C110     1.0000 0.47979  0.92484  0.22527  Biso   1.000  C
  C111     1.0000 0.02021  0.42484  0.22527  Biso   1.000  C
  C112     1.0000 0.97979  0.57516  0.77473  Biso   1.000  C
  C113     1.0000 0.38032  0.96314  0.84620  Biso   1.000  C
  C114     1.0000 0.61968  0.03686  0.15380  Biso   1.000  C
  C115     1.0000 0.88032  0.53686  0.15380  Biso   1.000  C
  C116     1.0000 0.11968  0.46314  0.84620  Biso   1.000  C
  C117     1.0000 0.63092  0.05088  0.82572  Biso   1.000  C
  C118     1.0000 0.36908  0.94912  0.17428  Biso   1.000  C
  C119     1.0000 0.13092  0.44912  0.17428  Biso   1.000  C
  C120     1.0000 0.86908  0.55088  0.82572  Biso   1.000  C
  C121     1.0000 0.49100  0.93877  0.89663  Biso   1.000  C
  C122     1.0000 0.50900  0.06123  0.10337  Biso   1.000  C
  C123     1.0000 0.99100  0.56123  0.10337  Biso   1.000  C
  C124     1.0000 0.00900  0.43877  0.89663  Biso   1.000  C
  C125     1.0000 0.61610  0.98295  0.88670  Biso   1.000  C
  C126     1.0000 0.38390  0.01705  0.11330  Biso   1.000  C
  C127     1.0000 0.11610  0.51705  0.11330  Biso   1.000  C
  C128     1.0000 0.88390  0.48295  0.88670  Biso   1.000  C
