data_image0
_cell_length_a       10.839
_cell_length_b       11.237
_cell_length_c       15.861
_cell_angle_alpha    90
_cell_angle_beta     90
_cell_angle_gamma    102.81

_symmetry_space_group_name_H-M    "P 1"
_symmetry_int_tables_number       1

loop_
  _symmetry_equiv_pos_as_xyz
  'x, y, z'

loop_
  _atom_site_label
  _atom_site_occupancy
  _atom_site_fract_x
  _atom_site_fract_y
  _atom_site_fract_z
  _atom_site_thermal_displace_type
  _atom_site_B_iso_or_equiv
  _atom_site_type_symbol
  H1       1.0000 0.04523  0.98408  0.64028  Biso   1.000  H
  H2       1.0000 0.95477  0.01592  0.35972  Biso   1.000  H
  H3       1.0000 0.95477  0.51592  0.14028  Biso   1.000  H
  H4       1.0000 0.04523  0.48408  0.85972  Biso   1.000  H
  H5       1.0000 0.90954  0.82180  0.72066  Biso   1.000  H
  H6       1.0000 0.09046  0.17820  0.27934  Biso   1.000  H
  H7       1.0000 0.09046  0.67820  0.22066  Biso   1.000  H
  H8       1.0000 0.90954  0.32180  0.77934  Biso   1.000  H
  H9       1.0000 0.86194  0.85495  0.87151  Biso   1.000  H
  H10      1.0000 0.13806  0.14505  0.12849  Biso   1.000  H
  H11      1.0000 0.13806  0.64505  0.37151  Biso   1.000  H
  H12      1.0000 0.86194  0.35495  0.62849  Biso   1.000  H
  H13      1.0000 0.95678  0.04577  0.94001  Biso   1.000  H
  H14      1.0000 0.04322  0.95423  0.05999  Biso   1.000  H
  H15      1.0000 0.04322  0.45423  0.44001  Biso   1.000  H
  H16      1.0000 0.95678  0.54578  0.55999  Biso   1.000  H
  H17      1.0000 0.03115  0.19625  0.99180  Biso   1.000  H
  H18      1.0000 0.96885  0.80375  0.00820  Biso   1.000  H
  H19      1.0000 0.96885  0.30375  0.49180  Biso   1.000  H
  H20      1.0000 0.03115  0.69625  0.50820  Biso   1.000  H
  H21      1.0000 0.16363  0.36423  0.07000  Biso   1.000  H
  H22      1.0000 0.83637  0.63577  0.93000  Biso   1.000  H
  H23      1.0000 0.83637  0.13577  0.57000  Biso   1.000  H
  H24      1.0000 0.16363  0.86423  0.43000  Biso   1.000  H
  H25      1.0000 0.35524  0.48862  0.00225  Biso   1.000  H
  H26      1.0000 0.64476  0.51138  0.99775  Biso   1.000  H
  H27      1.0000 0.64476  0.01138  0.50225  Biso   1.000  H
  H28      1.0000 0.35524  0.98862  0.49775  Biso   1.000  H
  H29      1.0000 0.35762  0.58493  0.72731  Biso   1.000  H
  H30      1.0000 0.64238  0.41507  0.27269  Biso   1.000  H
  H31      1.0000 0.64238  0.91507  0.22731  Biso   1.000  H
  H32      1.0000 0.35762  0.08493  0.77269  Biso   1.000  H
  H33      1.0000 0.41998  0.68151  0.59107  Biso   1.000  H
  H34      1.0000 0.58002  0.31849  0.40893  Biso   1.000  H
  H35      1.0000 0.58002  0.81849  0.09107  Biso   1.000  H
  H36      1.0000 0.41998  0.18151  0.90893  Biso   1.000  H
  H37      1.0000 0.38824  0.56696  0.45827  Biso   1.000  H
  H38      1.0000 0.61176  0.43304  0.54173  Biso   1.000  H
  H39      1.0000 0.61176  0.93304  0.95827  Biso   1.000  H
  H40      1.0000 0.38824  0.06696  0.04173  Biso   1.000  H
  H41      1.0000 0.30013  0.35394  0.38478  Biso   1.000  H
  H42      1.0000 0.69987  0.64606  0.61522  Biso   1.000  H
  H43      1.0000 0.69987  0.14606  0.88478  Biso   1.000  H
  H44      1.0000 0.30013  0.85394  0.11522  Biso   1.000  H
  H45      1.0000 0.18122  0.14153  0.40239  Biso   1.000  H
  H46      1.0000 0.81878  0.85847  0.59761  Biso   1.000  H
  H47      1.0000 0.81878  0.35847  0.90239  Biso   1.000  H
  H48      1.0000 0.18122  0.64153  0.09761  Biso   1.000  H
  H49      1.0000 0.09907  0.06142  0.53820  Biso   1.000  H
  H50      1.0000 0.90093  0.93858  0.46180  Biso   1.000  H
  H51      1.0000 0.90093  0.43858  0.03820  Biso   1.000  H
  H52      1.0000 0.09907  0.56142  0.96180  Biso   1.000  H
  H53      1.0000 0.48722  0.32744  0.78907  Biso   1.000  H
  H54      1.0000 0.51278  0.67256  0.21093  Biso   1.000  H
  H55      1.0000 0.51278  0.17256  0.28907  Biso   1.000  H
  H56      1.0000 0.48722  0.82744  0.71093  Biso   1.000  H
  H57      1.0000 0.69664  0.44284  0.74149  Biso   1.000  H
  H58      1.0000 0.30336  0.55716  0.25851  Biso   1.000  H
  H59      1.0000 0.30336  0.05716  0.24149  Biso   1.000  H
  H60      1.0000 0.69664  0.94284  0.75851  Biso   1.000  H
  H61      1.0000 0.76408  0.66270  0.77131  Biso   1.000  H
  H62      1.0000 0.23592  0.33730  0.22869  Biso   1.000  H
  H63      1.0000 0.23592  0.83730  0.27131  Biso   1.000  H
  H64      1.0000 0.76408  0.16270  0.72869  Biso   1.000  H
  H65      1.0000 0.62268  0.76745  0.85184  Biso   1.000  H
  H66      1.0000 0.37732  0.23255  0.14816  Biso   1.000  H
  H67      1.0000 0.37732  0.73255  0.35184  Biso   1.000  H
  H68      1.0000 0.62268  0.26745  0.64816  Biso   1.000  H
  H69      1.0000 0.41514  0.65275  0.90027  Biso   1.000  H
  H70      1.0000 0.58486  0.34725  0.09973  Biso   1.000  H
  H71      1.0000 0.58486  0.84725  0.40027  Biso   1.000  H
  H72      1.0000 0.41514  0.15275  0.59973  Biso   1.000  H
  C1       1.0000 0.02540  0.00010  0.70580  Biso   1.000  C
  C2       1.0000 0.97460  0.99990  0.29420  Biso   1.000  C
  C3       1.0000 0.97460  0.49990  0.20580  Biso   1.000  C
  C4       1.0000 0.02540  0.50010  0.79420  Biso   1.000  C
  C5       1.0000 0.94860  0.90900  0.75102  Biso   1.000  C
  C6       1.0000 0.05140  0.09100  0.24898  Biso   1.000  C
  C7       1.0000 0.05140  0.59100  0.25102  Biso   1.000  C
  C8       1.0000 0.94860  0.40900  0.74898  Biso   1.000  C
  C9       1.0000 0.92330  0.92670  0.83520  Biso   1.000  C
  C10      1.0000 0.07670  0.07330  0.16480  Biso   1.000  C
  C11      1.0000 0.07670  0.57330  0.33520  Biso   1.000  C
  C12      1.0000 0.92330  0.42670  0.66480  Biso   1.000  C
  C13      1.0000 0.97730  0.03480  0.87371  Biso   1.000  C
  C14      1.0000 0.02270  0.96520  0.12629  Biso   1.000  C
  C15      1.0000 0.02270  0.46520  0.37371  Biso   1.000  C
  C16      1.0000 0.97730  0.53480  0.62629  Biso   1.000  C
  C17      1.0000 0.06040  0.12900  0.83039  Biso   1.000  C
  C18      1.0000 0.93960  0.87100  0.16961  Biso   1.000  C
  C19      1.0000 0.93960  0.37100  0.33039  Biso   1.000  C
  C20      1.0000 0.06040  0.62900  0.66961  Biso   1.000  C
  C21      1.0000 0.13060  0.23760  0.87394  Biso   1.000  C
  C22      1.0000 0.86940  0.76240  0.12606  Biso   1.000  C
  C23      1.0000 0.86940  0.26240  0.37394  Biso   1.000  C
  C24      1.0000 0.13060  0.73760  0.62606  Biso   1.000  C
  C25      1.0000 0.10900  0.25680  0.95957  Biso   1.000  C
  C26      1.0000 0.89100  0.74320  0.04043  Biso   1.000  C
  C27      1.0000 0.89100  0.24320  0.45957  Biso   1.000  C
  C28      1.0000 0.10900  0.75680  0.54043  Biso   1.000  C
  C29      1.0000 0.18320  0.34940  0.00397  Biso   1.000  C
  C30      1.0000 0.81680  0.65060  0.99603  Biso   1.000  C
  C31      1.0000 0.81680  0.15060  0.50397  Biso   1.000  C
  C32      1.0000 0.18320  0.84940  0.49603  Biso   1.000  C
  C33      1.0000 0.28870  0.42280  0.96458  Biso   1.000  C
  C34      1.0000 0.71130  0.57720  0.03542  Biso   1.000  C
  C35      1.0000 0.71130  0.07720  0.46458  Biso   1.000  C
  C36      1.0000 0.28870  0.92280  0.53542  Biso   1.000  C
  C37      1.0000 0.31290  0.41080  0.88032  Biso   1.000  C
  C38      1.0000 0.68710  0.58920  0.11968  Biso   1.000  C
  C39      1.0000 0.68710  0.08920  0.38032  Biso   1.000  C
  C40      1.0000 0.31290  0.91080  0.61968  Biso   1.000  C
  C41      1.0000 0.22650  0.32360  0.83081  Biso   1.000  C
  C42      1.0000 0.77350  0.67640  0.16919  Biso   1.000  C
  C43      1.0000 0.77350  0.17640  0.33081  Biso   1.000  C
  C44      1.0000 0.22650  0.82360  0.66919  Biso   1.000  C
  C45      1.0000 0.22860  0.31490  0.73977  Biso   1.000  C
  C46      1.0000 0.77140  0.68510  0.26023  Biso   1.000  C
  C47      1.0000 0.77140  0.18510  0.23977  Biso   1.000  C
  C48      1.0000 0.22860  0.81490  0.76023  Biso   1.000  C
  C49      1.0000 0.28510  0.40620  0.67449  Biso   1.000  C
  C50      1.0000 0.71490  0.59380  0.32551  Biso   1.000  C
  C51      1.0000 0.71490  0.09380  0.17449  Biso   1.000  C
  C52      1.0000 0.28510  0.90620  0.82551  Biso   1.000  C
  C53      1.0000 0.34020  0.52840  0.67120  Biso   1.000  C
  C54      1.0000 0.65980  0.47160  0.32880  Biso   1.000  C
  C55      1.0000 0.65980  0.97160  0.17120  Biso   1.000  C
  C56      1.0000 0.34020  0.02840  0.82880  Biso   1.000  C
  C57      1.0000 0.37570  0.58450  0.59201  Biso   1.000  C
  C58      1.0000 0.62430  0.41550  0.40799  Biso   1.000  C
  C59      1.0000 0.62430  0.91550  0.09201  Biso   1.000  C
  C60      1.0000 0.37570  0.08450  0.90799  Biso   1.000  C
  C61      1.0000 0.35690  0.52160  0.51776  Biso   1.000  C
  C62      1.0000 0.64310  0.47840  0.48224  Biso   1.000  C
  C63      1.0000 0.64310  0.97840  0.01776  Biso   1.000  C
  C64      1.0000 0.35690  0.02160  0.98224  Biso   1.000  C
  C65      1.0000 0.29630  0.39620  0.51825  Biso   1.000  C
  C66      1.0000 0.70370  0.60380  0.48175  Biso   1.000  C
  C67      1.0000 0.70370  0.10380  0.01825  Biso   1.000  C
  C68      1.0000 0.29630  0.89620  0.98175  Biso   1.000  C
  C69      1.0000 0.25930  0.34460  0.59591  Biso   1.000  C
  C70      1.0000 0.74070  0.65540  0.40409  Biso   1.000  C
  C71      1.0000 0.74070  0.15540  0.09591  Biso   1.000  C
  C72      1.0000 0.25930  0.84460  0.90409  Biso   1.000  C
  C73      1.0000 0.26800  0.31910  0.44700  Biso   1.000  C
  C74      1.0000 0.73200  0.68090  0.55300  Biso   1.000  C
  C75      1.0000 0.73200  0.18090  0.94700  Biso   1.000  C
  C76      1.0000 0.26800  0.81910  0.05300  Biso   1.000  C
  C77      1.0000 0.20130  0.20150  0.45694  Biso   1.000  C
  C78      1.0000 0.79870  0.79850  0.54306  Biso   1.000  C
  C79      1.0000 0.79870  0.29850  0.95694  Biso   1.000  C
  C80      1.0000 0.20130  0.70150  0.04306  Biso   1.000  C
  C81      1.0000 0.15600  0.15400  0.53653  Biso   1.000  C
  C82      1.0000 0.84400  0.84600  0.46347  Biso   1.000  C
  C83      1.0000 0.84400  0.34600  0.03653  Biso   1.000  C
  C84      1.0000 0.15600  0.65400  0.96347  Biso   1.000  C
  C85      1.0000 0.18580  0.22400  0.60733  Biso   1.000  C
  C86      1.0000 0.81420  0.77600  0.39267  Biso   1.000  C
  C87      1.0000 0.81420  0.27600  0.10733  Biso   1.000  C
  C88      1.0000 0.18580  0.72400  0.89267  Biso   1.000  C
  C89      1.0000 0.16330  0.21010  0.69888  Biso   1.000  C
  C90      1.0000 0.83670  0.78990  0.30112  Biso   1.000  C
  C91      1.0000 0.83670  0.28990  0.19888  Biso   1.000  C
  C92      1.0000 0.16330  0.71010  0.80112  Biso   1.000  C
  C93      1.0000 0.08290  0.11170  0.74428  Biso   1.000  C
  C94      1.0000 0.91710  0.88830  0.25572  Biso   1.000  C
  C95      1.0000 0.91710  0.38830  0.24428  Biso   1.000  C
  C96      1.0000 0.08290  0.61170  0.75572  Biso   1.000  C
  C97      1.0000 0.43630  0.48210  0.84769  Biso   1.000  C
  C98      1.0000 0.56370  0.51790  0.15231  Biso   1.000  C
  C99      1.0000 0.56370  0.01790  0.34769  Biso   1.000  C
  C100     1.0000 0.43630  0.98210  0.65231  Biso   1.000  C
  C101     1.0000 0.51660  0.42460  0.80298  Biso   1.000  C
  C102     1.0000 0.48340  0.57540  0.19702  Biso   1.000  C
  C103     1.0000 0.48340  0.07540  0.30298  Biso   1.000  C
  C104     1.0000 0.51660  0.92460  0.69702  Biso   1.000  C
  C105     1.0000 0.63390  0.48910  0.77578  Biso   1.000  C
  C106     1.0000 0.36610  0.51090  0.22422  Biso   1.000  C
  C107     1.0000 0.36610  0.01090  0.27578  Biso   1.000  C
  C108     1.0000 0.63390  0.98910  0.72422  Biso   1.000  C
  C109     1.0000 0.67160  0.61240  0.79275  Biso   1.000  C
  C110     1.0000 0.32840  0.38760  0.20725  Biso   1.000  C
  C111     1.0000 0.32840  0.88760  0.29275  Biso   1.000  C
  C112     1.0000 0.67160  0.11240  0.70725  Biso   1.000  C
  C113     1.0000 0.59290  0.67040  0.83765  Biso   1.000  C
  C114     1.0000 0.40710  0.32960  0.16235  Biso   1.000  C
  C115     1.0000 0.40710  0.82960  0.33765  Biso   1.000  C
  C116     1.0000 0.59290  0.17040  0.66235  Biso   1.000  C
  C117     1.0000 0.47700  0.60600  0.86536  Biso   1.000  C
  C118     1.0000 0.52300  0.39400  0.13464  Biso   1.000  C
  C119     1.0000 0.52300  0.89400  0.36536  Biso   1.000  C
  C120     1.0000 0.47700  0.10600  0.63464  Biso   1.000  C
