data_image0
_cell_length_a       6.4811
_cell_length_b       11.3196
_cell_length_c       39.0621
_cell_angle_alpha    93.369
_cell_angle_beta     92.557
_cell_angle_gamma    103.884

_symmetry_space_group_name_H-M    "P 1"
_symmetry_int_tables_number       1

loop_
  _symmetry_equiv_pos_as_xyz
  'x, y, z'

loop_
  _atom_site_label
  _atom_site_occupancy
  _atom_site_fract_x
  _atom_site_fract_y
  _atom_site_fract_z
  _atom_site_thermal_displace_type
  _atom_site_B_iso_or_equiv
  _atom_site_type_symbol
  H1       1.0000 0.60224  0.44842  0.86919  Biso   1.000  H
  H2       1.0000 0.68428  0.17920  0.61857  Biso   1.000  H
  H3       1.0000 0.38841  0.01970  0.72747  Biso   1.000  H
  H4       1.0000 0.65356  0.38277  0.94317  Biso   1.000  H
  H5       1.0000 0.74192  0.44516  0.72064  Biso   1.000  H
  H6       1.0000 0.08054  0.19680  0.88500  Biso   1.000  H
  H7       1.0000 0.04121  0.02619  0.75298  Biso   1.000  H
  H8       1.0000 0.01518  0.83430  0.59504  Biso   1.000  H
  H9       1.0000 0.69288  0.58859  0.47913  Biso   1.000  H
  H10      1.0000 0.90078  0.26968  0.70984  Biso   1.000  H
  H11      1.0000 0.67161  0.26979  0.18728  Biso   1.000  H
  H12      1.0000 0.31768  0.87090  0.64589  Biso   1.000  H
  H13      1.0000 0.73083  0.60828  0.65989  Biso   1.000  H
  H14      1.0000 0.18536  0.80529  0.71954  Biso   1.000  H
  H15      1.0000 0.64940  0.12904  0.83026  Biso   1.000  H
  H16      1.0000 0.32295  0.29067  0.97868  Biso   1.000  H
  H17      1.0000 0.33948  0.33395  0.76637  Biso   1.000  H
  H18      1.0000 0.66713  0.59267  0.95262  Biso   1.000  H
  H19      1.0000 0.34598  0.08915  0.78689  Biso   1.000  H
  H20      1.0000 0.94997  0.43620  0.84264  Biso   1.000  H
  H21      1.0000 0.80687  0.65883  0.87605  Biso   1.000  H
  H22      1.0000 0.50987  0.75354  0.72523  Biso   1.000  H
  H23      1.0000 0.70734  0.83616  0.19652  Biso   1.000  H
  H24      1.0000 0.70770  0.92647  0.13922  Biso   1.000  H
  H25      1.0000 0.59894  0.02444  0.89648  Biso   1.000  H
  H26      1.0000 0.37833  0.43820  0.69826  Biso   1.000  H
  H27      1.0000 0.96172  0.62626  0.00105  Biso   1.000  H
  H28      1.0000 0.49549  0.75985  0.96417  Biso   1.000  H
  H29      1.0000 0.47869  0.70616  0.87108  Biso   1.000  H
  H30      1.0000 0.07788  0.01857  0.94703  Biso   1.000  H
  H31      1.0000 0.80405  0.80984  0.83302  Biso   1.000  H
  H32      1.0000 0.63973  0.37430  0.80973  Biso   1.000  H
  H33      1.0000 0.28668  0.48860  0.63493  Biso   1.000  H
  H34      1.0000 0.47419  0.85672  0.82595  Biso   1.000  H
  H35      1.0000 0.24871  0.85094  0.93601  Biso   1.000  H
  H36      1.0000 0.05992  0.07779  0.02746  Biso   1.000  H
  H37      1.0000 0.84442  0.55944  0.78962  Biso   1.000  H
  H38      1.0000 0.17390  0.25575  0.66448  Biso   1.000  H
  H39      1.0000 0.99862  0.10035  0.81287  Biso   1.000  H
  H40      1.0000 0.14126  0.90812  0.80864  Biso   1.000  H
  H41      1.0000 0.98969  0.36771  0.78326  Biso   1.000  H
  H42      1.0000 0.50774  0.60684  0.76899  Biso   1.000  H
  H43      1.0000 0.82200  0.82825  0.36454  Biso   1.000  H
  H44      1.0000 0.04753  0.86283  0.16888  Biso   1.000  H
  H45      1.0000 0.18065  0.65635  0.76359  Biso   1.000  H
  H46      1.0000 0.81204  0.20984  0.93172  Biso   1.000  H
  H47      1.0000 0.69482  0.97515  0.96033  Biso   1.000  H
  H48      1.0000 0.79809  0.78218  0.43466  Biso   1.000  H
  H49      1.0000 0.61605  0.95684  0.01841  Biso   1.000  H
  H50      1.0000 0.49460  0.70410  0.63311  Biso   1.000  H
  H51      1.0000 0.32482  0.07888  0.65205  Biso   1.000  H
  H52      1.0000 0.91097  0.44199  0.64730  Biso   1.000  H
  H53      1.0000 0.74459  0.28410  0.24931  Biso   1.000  H
  H54      1.0000 0.23419  0.01775  0.87363  Biso   1.000  H
  H55      1.0000 0.38040  0.51586  0.57318  Biso   1.000  H
  H56      1.0000 0.40664  0.61127  0.51677  Biso   1.000  H
  H57      1.0000 0.76802  0.55886  0.57210  Biso   1.000  H
  H58      1.0000 0.13367  0.03947  0.12956  Biso   1.000  H
  H59      1.0000 0.09489  0.93733  0.47518  Biso   1.000  H
  H60      1.0000 0.78244  0.46499  0.28862  Biso   1.000  H
  H61      1.0000 0.61351  0.86903  0.07306  Biso   1.000  H
  H62      1.0000 0.47483  0.84450  0.37689  Biso   1.000  H
  H63      1.0000 0.29703  0.01865  0.38489  Biso   1.000  H
  H64      1.0000 0.64815  0.32742  0.04828  Biso   1.000  H
  H65      1.0000 0.81338  0.30692  0.49924  Biso   1.000  H
  H66      1.0000 0.40094  0.96519  0.55614  Biso   1.000  H
  H67      1.0000 0.89256  0.43358  0.46611  Biso   1.000  H
  H68      1.0000 0.83523  0.43113  0.39683  Biso   1.000  H
  H69      1.0000 0.86917  0.11134  0.17655  Biso   1.000  H
  H70      1.0000 0.42025  0.65006  0.08552  Biso   1.000  H
  H71      1.0000 0.35059  0.22968  0.10113  Biso   1.000  H
  H72      1.0000 0.72034  0.46459  0.20999  Biso   1.000  H
  H73      1.0000 0.14513  0.36063  0.42167  Biso   1.000  H
  H74      1.0000 0.60208  0.48829  0.07432  Biso   1.000  H
  H75      1.0000 0.20328  0.29851  0.57978  Biso   1.000  H
  H76      1.0000 0.84004  0.72534  0.52325  Biso   1.000  H
  H77      1.0000 0.33319  0.42470  0.35926  Biso   1.000  H
  H78      1.0000 0.20253  0.05215  0.20045  Biso   1.000  H
  H79      1.0000 0.76647  0.74124  0.30687  Biso   1.000  H
  H80      1.0000 0.19004  0.65223  0.23139  Biso   1.000  H
  H81      1.0000 0.34241  0.89182  0.11655  Biso   1.000  H
  H82      1.0000 0.72580  0.06639  0.23871  Biso   1.000  H
  H83      1.0000 0.22162  0.69889  0.16016  Biso   1.000  H
  H84      1.0000 0.00476  0.90858  0.07469  Biso   1.000  H
  H85      1.0000 0.33018  0.61577  0.33769  Biso   1.000  H
  H86      1.0000 0.97935  0.61691  0.42950  Biso   1.000  H
  H87      1.0000 0.31434  0.55165  0.45722  Biso   1.000  H
  H88      1.0000 0.35421  0.21288  0.40768  Biso   1.000  H
  H89      1.0000 0.26934  0.74421  0.29015  Biso   1.000  H
  H90      1.0000 0.55283  0.63223  0.21661  Biso   1.000  H
  H91      1.0000 0.19175  0.92585  0.24737  Biso   1.000  H
  H92      1.0000 0.72247  0.86337  0.25891  Biso   1.000  H
  H93      1.0000 0.84420  0.55845  0.34827  Biso   1.000  H
  H94      1.0000 0.96161  0.40176  0.55813  Biso   1.000  H
  H95      1.0000 0.32065  0.64712  0.40179  Biso   1.000  H
  H96      1.0000 0.18405  0.74730  0.07094  Biso   1.000  H
  H97      1.0000 0.57993  0.80680  0.55000  Biso   1.000  H
  H98      1.0000 0.02001  0.56844  0.51169  Biso   1.000  H
  H99      1.0000 0.29856  0.20006  0.35027  Biso   1.000  H
  H100     1.0000 0.38019  0.13868  0.56923  Biso   1.000  H
  H101     1.0000 0.22307  0.90887  0.02187  Biso   1.000  H
  H102     1.0000 0.24058  0.01898  0.30904  Biso   1.000  H
  H103     1.0000 0.87416  0.51112  0.12261  Biso   1.000  H
  H104     1.0000 0.82694  0.16590  0.03573  Biso   1.000  H
  C1       1.0000 0.82120  0.08160  0.57957  Biso   1.000  C
  C2       1.0000 0.75780  0.98320  0.69964  Biso   1.000  C
  C3       1.0000 0.14650  0.58450  0.90403  Biso   1.000  C
  C4       1.0000 0.67160  0.25510  0.55892  Biso   1.000  C
  C5       1.0000 0.07760  0.48400  0.02328  Biso   1.000  C
  C6       1.0000 0.84410  0.87670  0.69297  Biso   1.000  C
  C7       1.0000 0.10640  0.53100  0.96219  Biso   1.000  C
  C8       1.0000 0.90480  0.60900  0.06269  Biso   1.000  C
  C9       1.0000 0.22630  0.31940  0.04381  Biso   1.000  C
  C10      1.0000 0.91560  0.85650  0.66012  Biso   1.000  C
  C11      1.0000 0.62620  0.16330  0.68096  Biso   1.000  C
  C12      1.0000 0.78570  0.02930  0.63968  Biso   1.000  C
  C13      1.0000 0.23700  0.48340  0.89616  Biso   1.000  C
  C14      1.0000 0.84710  0.79050  0.72026  Biso   1.000  C
  C15      1.0000 0.99620  0.96450  0.53964  Biso   1.000  C
  C16      1.0000 0.01140  0.50590  0.05656  Biso   1.000  C
  C17      1.0000 0.23790  0.22210  0.23036  Biso   1.000  C
  C18      1.0000 0.26470  0.40850  0.92268  Biso   1.000  C
  C19      1.0000 0.46670  0.43100  0.85051  Biso   1.000  C
  C20      1.0000 0.75880  0.10430  0.61349  Biso   1.000  C
  C21      1.0000 0.01230  0.75100  0.65285  Biso   1.000  C
  C22      1.0000 0.26990  0.44660  0.86047  Biso   1.000  C
  C23      1.0000 0.71350  0.01560  0.73636  Biso   1.000  C
  C24      1.0000 0.71920  0.05420  0.67402  Biso   1.000  C
  C25      1.0000 0.26270  0.26020  0.16748  Biso   1.000  C
  C26      1.0000 0.52280  0.03500  0.74637  Biso   1.000  C
  C27      1.0000 0.56000  0.30240  0.92780  Biso   1.000  C
  C28      1.0000 0.17740  0.38350  0.01662  Biso   1.000  C
  C29      1.0000 0.64840  0.36390  0.70584  Biso   1.000  C
  C30      1.0000 0.20870  0.43320  0.95568  Biso   1.000  C
  C31      1.0000 0.93050  0.98940  0.57291  Biso   1.000  C
  C32      1.0000 0.88660  0.93190  0.63291  Biso   1.000  C
  C33      1.0000 0.97020  0.70850  0.94319  Biso   1.000  C
  C34      1.0000 0.83010  0.15900  0.45710  Biso   1.000  C
  C35      1.0000 0.24050  0.19830  0.89526  Biso   1.000  C
  C36      1.0000 0.88800  0.03820  0.76069  Biso   1.000  C
  C37      1.0000 0.94360  0.91050  0.60045  Biso   1.000  C
  C38      1.0000 0.61430  0.50470  0.46406  Biso   1.000  C
  C39      1.0000 0.74010  0.26510  0.69936  Biso   1.000  C
  C40      1.0000 0.07720  0.60770  0.93560  Biso   1.000  C
  C41      1.0000 0.59240  0.18650  0.17193  Biso   1.000  C
  C42      1.0000 0.22810  0.77620  0.64605  Biso   1.000  C
  C43      1.0000 0.17750  0.41560  0.20770  Biso   1.000  C
  C44      1.0000 0.33520  0.21690  0.03737  Biso   1.000  C
  C45      1.0000 0.78750  0.15860  0.55221  Biso   1.000  C
  C46      1.0000 0.89760  0.63000  0.65396  Biso   1.000  C
  C47      1.0000 0.03720  0.76170  0.73047  Biso   1.000  C
  C48      1.0000 0.85990  0.13400  0.52045  Biso   1.000  C
  C49      1.0000 0.66750  0.09650  0.80403  Biso   1.000  C
  C50      1.0000 0.24490  0.36450  0.98338  Biso   1.000  C
  C51      1.0000 0.35750  0.30200  0.91577  Biso   1.000  C
  C52      1.0000 0.11260  0.86810  0.53289  Biso   1.000  C
  C53      1.0000 0.14000  0.67310  0.87668  Biso   1.000  C
  C54      1.0000 0.31910  0.36670  0.79249  Biso   1.000  C
  C55      1.0000 0.76080  0.68610  0.95150  Biso   1.000  C
  C56      1.0000 0.49820  0.07360  0.77969  Biso   1.000  C
  C57      1.0000 0.10410  0.42410  0.83514  Biso   1.000  C
  C58      1.0000 0.09250  0.41200  0.14613  Biso   1.000  C
  C59      1.0000 0.95620  0.70330  0.86544  Biso   1.000  C
  C60      1.0000 0.65780  0.73280  0.73428  Biso   1.000  C
  C61      1.0000 0.78790  0.76290  0.19277  Biso   1.000  C
  C62      1.0000 0.61600  0.99360  0.14502  Biso   1.000  C
  C63      1.0000 0.53140  0.10270  0.90173  Biso   1.000  C
  C64      1.0000 0.05800  0.44020  0.08310  Biso   1.000  C
  C65      1.0000 0.44650  0.36020  0.69302  Biso   1.000  C
  C66      1.0000 0.03810  0.55190  0.99620  Biso   1.000  C
  C67      1.0000 0.66170  0.78200  0.95777  Biso   1.000  C
  C68      1.0000 0.32990  0.72720  0.86277  Biso   1.000  C
  C69      1.0000 0.98630  0.92480  0.94817  Biso   1.000  C
  C70      1.0000 0.95280  0.78870  0.84128  Biso   1.000  C
  C71      1.0000 0.48760  0.39010  0.81695  Biso   1.000  C
  C72      1.0000 0.20880  0.56250  0.64019  Biso   1.000  C
  C73      1.0000 0.32720  0.81320  0.83733  Biso   1.000  C
  C74      1.0000 0.08230  0.83040  0.94234  Biso   1.000  C
  C75      1.0000 0.25340  0.19830  0.29202  Biso   1.000  C
  C76      1.0000 0.23440  0.10010  0.02960  Biso   1.000  C
  C77      1.0000 0.84310  0.62240  0.76975  Biso   1.000  C
  C78      1.0000 0.33530  0.26030  0.67486  Biso   1.000  C
  C79      1.0000 0.86280  0.07970  0.79409  Biso   1.000  C
  C80      1.0000 0.13970  0.84290  0.82812  Biso   1.000  C
  C81      1.0000 0.12550  0.38610  0.80197  Biso   1.000  C
  C82      1.0000 0.65700  0.65080  0.75819  Biso   1.000  C
  C83      1.0000 0.93340  0.01290  0.41679  Biso   1.000  C
  C84      1.0000 0.80130  0.88910  0.34494  Biso   1.000  C
  C85      1.0000 0.98930  0.57290  0.18441  Biso   1.000  C
  C86      1.0000 0.96980  0.77490  0.17824  Biso   1.000  C
  C87      1.0000 0.03320  0.67820  0.75471  Biso   1.000  C
  C88      1.0000 0.65120  0.20590  0.92151  Biso   1.000  C
  C89      1.0000 0.77150  0.90040  0.95583  Biso   1.000  C
  C90      1.0000 0.95070  0.79780  0.42274  Biso   1.000  C
  C91      1.0000 0.53340  0.02850  0.02419  Biso   1.000  C
  C92      1.0000 0.32770  0.68380  0.63895  Biso   1.000  C
  C93      1.0000 0.41900  0.15890  0.66720  Biso   1.000  C
  C94      1.0000 0.77530  0.20660  0.33264  Biso   1.000  C
  C95      1.0000 0.03920  0.91320  0.41252  Biso   1.000  C
  C96      1.0000 0.79030  0.17910  0.39572  Biso   1.000  C
  C97      1.0000 0.00100  0.53650  0.64688  Biso   1.000  C
  C98      1.0000 0.74470  0.22790  0.27103  Biso   1.000  C
  C99      1.0000 0.64020  0.31290  0.43761  Biso   1.000  C
  C100     1.0000 0.27950  0.44890  0.30567  Biso   1.000  C
  C101     1.0000 0.32620  0.09850  0.88873  Biso   1.000  C
  C102     1.0000 0.46120  0.44250  0.56968  Biso   1.000  C
  C103     1.0000 0.31760  0.67940  0.52300  Biso   1.000  C
  C104     1.0000 0.67410  0.46400  0.56970  Biso   1.000  C
  C105     1.0000 0.96930  0.04210  0.51419  Biso   1.000  C
  C106     1.0000 0.16960  0.34450  0.07614  Biso   1.000  C
  C107     1.0000 0.29870  0.05720  0.13966  Biso   1.000  C
  C108     1.0000 0.01000  0.00820  0.47935  Biso   1.000  C
  C109     1.0000 0.81700  0.00840  0.35348  Biso   1.000  C
  C110     1.0000 0.78650  0.40990  0.31053  Biso   1.000  C
  C111     1.0000 0.38680  0.16720  0.16035  Biso   1.000  C
  C112     1.0000 0.69400  0.79510  0.07279  Biso   1.000  C
  C113     1.0000 0.32870  0.83150  0.39035  Biso   1.000  C
  C114     1.0000 0.25350  0.40250  0.27165  Biso   1.000  C
  C115     1.0000 0.09470  0.46470  0.18019  Biso   1.000  C
  C116     1.0000 0.23630  0.29960  0.20193  Biso   1.000  C
  C117     1.0000 0.22670  0.93110  0.39481  Biso   1.000  C
  C118     1.0000 0.55000  0.23630  0.04070  Biso   1.000  C
  C119     1.0000 0.75200  0.21480  0.42926  Biso   1.000  C
  C120     1.0000 0.88300  0.23080  0.49340  Biso   1.000  C
  C121     1.0000 0.30490  0.87880  0.54410  Biso   1.000  C
  C122     1.0000 0.72620  0.41440  0.45661  Biso   1.000  C
  C123     1.0000 0.81430  0.38580  0.37127  Biso   1.000  C
  C124     1.0000 0.70580  0.09460  0.16595  Biso   1.000  C
  C125     1.0000 0.94190  0.06530  0.45071  Biso   1.000  C
  C126     1.0000 0.58600  0.67300  0.07899  Biso   1.000  C
  C127     1.0000 0.25540  0.29510  0.10594  Biso   1.000  C
  C128     1.0000 0.21610  0.47080  0.24304  Biso   1.000  C
  C129     1.0000 0.79170  0.55290  0.20061  Biso   1.000  C
  C130     1.0000 0.30970  0.37700  0.43164  Biso   1.000  C
  C131     1.0000 0.68840  0.58290  0.07293  Biso   1.000  C
  C132     1.0000 0.37100  0.32720  0.57417  Biso   1.000  C
  C133     1.0000 0.01360  0.75220  0.52720  Biso   1.000  C
  C134     1.0000 0.30510  0.37760  0.33370  Biso   1.000  C
  C135     1.0000 0.77290  0.08180  0.32674  Biso   1.000  C
  C136     1.0000 0.22010  0.09560  0.22629  Biso   1.000  C
  C137     1.0000 0.76710  0.83770  0.31086  Biso   1.000  C
  C138     1.0000 0.21610  0.59480  0.25156  Biso   1.000  C
  C139     1.0000 0.41660  0.97440  0.13270  Biso   1.000  C
  C140     1.0000 0.73960  0.10630  0.26503  Biso   1.000  C
  C141     1.0000 0.07160  0.68130  0.17278  Biso   1.000  C
  C142     1.0000 0.90800  0.81490  0.07360  Biso   1.000  C
  C143     1.0000 0.29840  0.57420  0.31150  Biso   1.000  C
  C144     1.0000 0.78610  0.26060  0.36661  Biso   1.000  C
  C145     1.0000 0.05240  0.70450  0.41980  Biso   1.000  C
  C146     1.0000 0.40530  0.48440  0.45136  Biso   1.000  C
  C147     1.0000 0.85140  0.06780  0.38858  Biso   1.000  C
  C148     1.0000 0.42590  0.29650  0.42340  Biso   1.000  C
  C149     1.0000 0.25990  0.64770  0.28449  Biso   1.000  C
  C150     1.0000 0.70350  0.64620  0.20410  Biso   1.000  C
  C151     1.0000 0.21280  0.02390  0.25245  Biso   1.000  C
  C152     1.0000 0.19140  0.31460  0.13997  Biso   1.000  C
  C153     1.0000 0.74100  0.90020  0.28557  Biso   1.000  C
  C154     1.0000 0.81890  0.46030  0.34282  Biso   1.000  C
  C155     1.0000 0.79090  0.37560  0.56060  Biso   1.000  C
  C156     1.0000 0.73260  0.02440  0.29259  Biso   1.000  C
  C157     1.0000 0.76800  0.28010  0.30334  Biso   1.000  C
  C158     1.0000 0.24900  0.27420  0.26515  Biso   1.000  C
  C159     1.0000 0.24010  0.72120  0.40431  Biso   1.000  C
  C160     1.0000 0.01060  0.72210  0.07150  Biso   1.000  C
  C161     1.0000 0.41300  0.78510  0.54090  Biso   1.000  C
  C162     1.0000 0.12170  0.65770  0.52050  Biso   1.000  C
  C163     1.0000 0.28790  0.25840  0.32950  Biso   1.000  C
  C164     1.0000 0.47330  0.23150  0.56733  Biso   1.000  C
  C165     1.0000 0.32380  0.00040  0.02740  Biso   1.000  C
  C166     1.0000 0.23820  0.07510  0.28744  Biso   1.000  C
  C167     1.0000 0.96880  0.44570  0.11736  Biso   1.000  C
  C168     1.0000 0.65420  0.14410  0.03450  Biso   1.000  C
