data_image0
_cell_length_a       5.15
_cell_length_b       11
_cell_length_c       15.8653
_cell_angle_alpha    91.8804
_cell_angle_beta     90
_cell_angle_gamma    90

_symmetry_space_group_name_H-M    "P 1"
_symmetry_int_tables_number       1

loop_
  _symmetry_equiv_pos_as_xyz
  'x, y, z'

loop_
  _atom_site_label
  _atom_site_occupancy
  _atom_site_fract_x
  _atom_site_fract_y
  _atom_site_fract_z
  _atom_site_thermal_displace_type
  _atom_site_B_iso_or_equiv
  _atom_site_type_symbol
  C1       1.0000 0.84000  0.57500  0.13000  Biso   1.000  C
  C2       1.0000 0.16000  0.42500  0.87000  Biso   1.000  C
  C3       1.0000 0.34000  0.92500  0.37000  Biso   1.000  C
  C4       1.0000 0.66000  0.07500  0.63000  Biso   1.000  C
  C5       1.0000 0.64000  0.63400  0.17400  Biso   1.000  C
  C6       1.0000 0.36000  0.36600  0.82600  Biso   1.000  C
  C7       1.0000 0.14000  0.86600  0.32600  Biso   1.000  C
  C8       1.0000 0.86000  0.13400  0.67400  Biso   1.000  C
  C9       1.0000 0.63000  0.75800  0.16300  Biso   1.000  C
  C10      1.0000 0.37000  0.24200  0.83700  Biso   1.000  C
  C11      1.0000 0.13000  0.74200  0.33700  Biso   1.000  C
  C12      1.0000 0.87000  0.25800  0.66300  Biso   1.000  C
  C13      1.0000 0.80000  0.81700  0.11000  Biso   1.000  C
  C14      1.0000 0.20000  0.18300  0.89000  Biso   1.000  C
  C15      1.0000 0.30000  0.68300  0.39000  Biso   1.000  C
  C16      1.0000 0.70000  0.31700  0.61000  Biso   1.000  C
  C17      1.0000 0.97000  0.75800  0.06500  Biso   1.000  C
  C18      1.0000 0.03000  0.24200  0.93500  Biso   1.000  C
  C19      1.0000 0.47000  0.74200  0.43500  Biso   1.000  C
  C20      1.0000 0.53000  0.25800  0.56500  Biso   1.000  C
  C21      1.0000 0.99000  0.63100  0.07700  Biso   1.000  C
  C22      1.0000 0.01000  0.36900  0.92300  Biso   1.000  C
  C23      1.0000 0.49000  0.86900  0.42300  Biso   1.000  C
  C24      1.0000 0.51000  0.13100  0.57700  Biso   1.000  C
  C25      1.0000 0.13000  0.83200  0.00800  Biso   1.000  C
  C26      1.0000 0.87000  0.16800  0.99200  Biso   1.000  C
  C27      1.0000 0.63000  0.66800  0.49200  Biso   1.000  C
  C28      1.0000 0.37000  0.33200  0.50800  Biso   1.000  C
  C29      1.0000 0.97000  0.95200  0.02100  Biso   1.000  C
  C30      1.0000 0.03000  0.04800  0.97900  Biso   1.000  C
  C31      1.0000 0.47000  0.54800  0.47900  Biso   1.000  C
  C32      1.0000 0.53000  0.45200  0.52100  Biso   1.000  C
  C33      1.0000 0.79000  0.94200  0.08100  Biso   1.000  C
  C34      1.0000 0.21000  0.05800  0.91900  Biso   1.000  C
  C35      1.0000 0.29000  0.55800  0.41900  Biso   1.000  C
  C36      1.0000 0.71000  0.44200  0.58100  Biso   1.000  C
  C37      1.0000 0.63000  0.05600  0.09700  Biso   1.000  C
  C38      1.0000 0.37000  0.94400  0.90300  Biso   1.000  C
  C39      1.0000 0.13000  0.44400  0.40300  Biso   1.000  C
  C40      1.0000 0.87000  0.55600  0.59700  Biso   1.000  C
  C41      1.0000 0.45000  0.06500  0.16000  Biso   1.000  C
  C42      1.0000 0.55000  0.93500  0.84000  Biso   1.000  C
  C43      1.0000 0.95000  0.43500  0.34000  Biso   1.000  C
  C44      1.0000 0.05000  0.56500  0.66000  Biso   1.000  C
  C45      1.0000 0.29000  0.16100  0.17900  Biso   1.000  C
  C46      1.0000 0.71000  0.83900  0.82100  Biso   1.000  C
  C47      1.0000 0.79000  0.33900  0.32100  Biso   1.000  C
  C48      1.0000 0.21000  0.66100  0.67900  Biso   1.000  C
  C49      1.0000 0.36000  0.27100  0.12900  Biso   1.000  C
  C50      1.0000 0.64000  0.72900  0.87100  Biso   1.000  C
  C51      1.0000 0.86000  0.22900  0.37100  Biso   1.000  C
  C52      1.0000 0.14000  0.77100  0.62900  Biso   1.000  C
  C53      1.0000 0.54000  0.27000  0.06800  Biso   1.000  C
  C54      1.0000 0.46000  0.73000  0.93200  Biso   1.000  C
  C55      1.0000 0.04000  0.23000  0.43200  Biso   1.000  C
  C56      1.0000 0.96000  0.77000  0.56800  Biso   1.000  C
  C57      1.0000 0.31000  0.83600  0.94800  Biso   1.000  C
  C58      1.0000 0.69000  0.16400  0.05200  Biso   1.000  C
  C59      1.0000 0.81000  0.66400  0.55200  Biso   1.000  C
  C60      1.0000 0.19000  0.33600  0.44800  Biso   1.000  C
  H1       1.0000 0.52117  0.18998  0.80430  Biso   1.000  H
  H2       1.0000 0.13586  0.52288  0.86274  Biso   1.000  H
  H3       1.0000 0.49414  0.41203  0.78482  Biso   1.000  H
  H4       1.0000 0.13826  0.57921  0.04246  Biso   1.000  H
  H5       1.0000 0.42627  0.64958  0.96841  Biso   1.000  H
  H6       1.0000 0.58218  0.01717  0.80481  Biso   1.000  H
  H7       1.0000 0.75450  0.64668  0.85854  Biso   1.000  H
  H8       1.0000 0.85807  0.83612  0.77238  Biso   1.000  H
  H9       1.0000 0.41782  0.98283  0.19519  Biso   1.000  H
  H10      1.0000 0.57373  0.35042  0.03159  Biso   1.000  H
  H11      1.0000 0.14193  0.16388  0.22762  Biso   1.000  H
  H12      1.0000 0.24550  0.35332  0.14146  Biso   1.000  H
  H13      1.0000 0.86174  0.42079  0.95754  Biso   1.000  H
  H14      1.0000 0.86414  0.47712  0.13726  Biso   1.000  H
  H15      1.0000 0.50586  0.58797  0.21518  Biso   1.000  H
  H16      1.0000 0.47883  0.81002  0.19570  Biso   1.000  H
  H17      1.0000 0.25450  0.85332  0.64146  Biso   1.000  H
  H18      1.0000 0.08218  0.48283  0.69519  Biso   1.000  H
  H19      1.0000 0.35807  0.66388  0.72762  Biso   1.000  H
  H20      1.0000 0.36414  0.02288  0.36274  Biso   1.000  H
  H21      1.0000 0.63826  0.92079  0.45754  Biso   1.000  H
  H22      1.0000 0.00586  0.91203  0.28482  Biso   1.000  H
  H23      1.0000 0.97883  0.68998  0.30430  Biso   1.000  H
  H24      1.0000 0.92627  0.85042  0.53159  Biso   1.000  H
  H25      1.0000 0.07373  0.14958  0.46841  Biso   1.000  H
  H26      1.0000 0.02117  0.31002  0.69570  Biso   1.000  H
  H27      1.0000 0.36174  0.07921  0.54246  Biso   1.000  H
  H28      1.0000 0.99414  0.08797  0.71518  Biso   1.000  H
  H29      1.0000 0.63586  0.97712  0.63726  Biso   1.000  H
  H30      1.0000 0.91782  0.51717  0.30481  Biso   1.000  H
  H31      1.0000 0.64193  0.33612  0.27238  Biso   1.000  H
  H32      1.0000 0.74550  0.14668  0.35854  Biso   1.000  H
