data_image0
_cell_length_a       5.426
_cell_length_b       11.352
_cell_length_c       11.6145
_cell_angle_alpha    90.756
_cell_angle_beta     90
_cell_angle_gamma    90

_symmetry_space_group_name_H-M    "P 1"
_symmetry_int_tables_number       1

loop_
  _symmetry_equiv_pos_as_xyz
  'x, y, z'

loop_
  _atom_site_label
  _atom_site_occupancy
  _atom_site_fract_x
  _atom_site_fract_y
  _atom_site_fract_z
  _atom_site_thermal_displace_type
  _atom_site_B_iso_or_equiv
  _atom_site_type_symbol
  H1       1.0000 0.46136  0.68677  0.34807  Biso   1.000  H
  H2       1.0000 0.53864  0.31323  0.65193  Biso   1.000  H
  H3       1.0000 0.96136  0.81323  0.65193  Biso   1.000  H
  H4       1.0000 0.03864  0.18677  0.34807  Biso   1.000  H
  H5       1.0000 0.51554  0.73948  0.14372  Biso   1.000  H
  H6       1.0000 0.48446  0.26052  0.85628  Biso   1.000  H
  H7       1.0000 0.01554  0.76052  0.85628  Biso   1.000  H
  H8       1.0000 0.98446  0.23948  0.14372  Biso   1.000  H
  H9       1.0000 0.40198  0.85077  0.97841  Biso   1.000  H
  H10      1.0000 0.59802  0.14923  0.02159  Biso   1.000  H
  H11      1.0000 0.90198  0.64923  0.02159  Biso   1.000  H
  H12      1.0000 0.09802  0.35077  0.97841  Biso   1.000  H
  H13      1.0000 0.13558  0.78384  0.46562  Biso   1.000  H
  H14      1.0000 0.86442  0.21616  0.53438  Biso   1.000  H
  H15      1.0000 0.63558  0.71616  0.53438  Biso   1.000  H
  H16      1.0000 0.36442  0.28384  0.46562  Biso   1.000  H
  H17      1.0000 0.55101  0.11396  0.18541  Biso   1.000  H
  H18      1.0000 0.44899  0.88604  0.81459  Biso   1.000  H
  H19      1.0000 0.05101  0.38604  0.81459  Biso   1.000  H
  H20      1.0000 0.94899  0.61396  0.18541  Biso   1.000  H
  H21      1.0000 0.50801  0.06609  0.38787  Biso   1.000  H
  H22      1.0000 0.49199  0.93391  0.61213  Biso   1.000  H
  H23      1.0000 0.00801  0.43391  0.61213  Biso   1.000  H
  H24      1.0000 0.99199  0.56609  0.38787  Biso   1.000  H
  H25      1.0000 0.78799  0.92371  0.48036  Biso   1.000  H
  H26      1.0000 0.21201  0.07629  0.51964  Biso   1.000  H
  H27      1.0000 0.28799  0.57629  0.51964  Biso   1.000  H
  H28      1.0000 0.71201  0.42371  0.48036  Biso   1.000  H
  C1       1.0000 0.33750  0.75100  0.31017  Biso   1.000  C
  C2       1.0000 0.66250  0.24900  0.68983  Biso   1.000  C
  C3       1.0000 0.83750  0.74900  0.68983  Biso   1.000  C
  C4       1.0000 0.16250  0.25100  0.31017  Biso   1.000  C
  C5       1.0000 0.36850  0.78008  0.19392  Biso   1.000  C
  C6       1.0000 0.63150  0.21992  0.80608  Biso   1.000  C
  C7       1.0000 0.86850  0.71992  0.80608  Biso   1.000  C
  C8       1.0000 0.13150  0.28008  0.19392  Biso   1.000  C
  C9       1.0000 0.21550  0.86149  0.14180  Biso   1.000  C
  C10      1.0000 0.78450  0.13851  0.85820  Biso   1.000  C
  C11      1.0000 0.71550  0.63851  0.85820  Biso   1.000  C
  C12      1.0000 0.28450  0.36149  0.14180  Biso   1.000  C
  C13      1.0000 0.24900  0.89316  0.02343  Biso   1.000  C
  C14      1.0000 0.75100  0.10684  0.97657  Biso   1.000  C
  C15      1.0000 0.74900  0.60684  0.97657  Biso   1.000  C
  C16      1.0000 0.25100  0.39316  0.02343  Biso   1.000  C
  C17      1.0000 0.89870  0.02814  0.03139  Biso   1.000  C
  C18      1.0000 0.10130  0.97186  0.96861  Biso   1.000  C
  C19      1.0000 0.39870  0.47186  0.96861  Biso   1.000  C
  C20      1.0000 0.60130  0.52814  0.03139  Biso   1.000  C
  C21      1.0000 0.15730  0.80417  0.37470  Biso   1.000  C
  C22      1.0000 0.84270  0.19583  0.62530  Biso   1.000  C
  C23      1.0000 0.65730  0.69583  0.62530  Biso   1.000  C
  C24      1.0000 0.34270  0.30417  0.37470  Biso   1.000  C
  C25      1.0000 0.99490  0.88796  0.32519  Biso   1.000  C
  C26      1.0000 0.00510  0.11204  0.67481  Biso   1.000  C
  C27      1.0000 0.49490  0.61204  0.67481  Biso   1.000  C
  C28      1.0000 0.50510  0.38796  0.32519  Biso   1.000  C
  C29      1.0000 0.02300  0.91644  0.20672  Biso   1.000  C
  C30      1.0000 0.97700  0.08356  0.79328  Biso   1.000  C
  C31      1.0000 0.52300  0.58356  0.79328  Biso   1.000  C
  C32      1.0000 0.47700  0.41644  0.20672  Biso   1.000  C
  C33      1.0000 0.86240  0.99919  0.15410  Biso   1.000  C
  C34      1.0000 0.13760  0.00081  0.84590  Biso   1.000  C
  C35      1.0000 0.36240  0.50081  0.84590  Biso   1.000  C
  C36      1.0000 0.63760  0.49919  0.15410  Biso   1.000  C
  C37      1.0000 0.67940  0.05087  0.22164  Biso   1.000  C
  C38      1.0000 0.32060  0.94913  0.77836  Biso   1.000  C
  C39      1.0000 0.17940  0.44913  0.77836  Biso   1.000  C
  C40      1.0000 0.82060  0.55087  0.22164  Biso   1.000  C
  C41      1.0000 0.65340  0.02340  0.33830  Biso   1.000  C
  C42      1.0000 0.34660  0.97660  0.66170  Biso   1.000  C
  C43      1.0000 0.15340  0.47660  0.66170  Biso   1.000  C
  C44      1.0000 0.84660  0.52340  0.33830  Biso   1.000  C
  C45      1.0000 0.80790  0.94398  0.38947  Biso   1.000  C
  C46      1.0000 0.19210  0.05602  0.61053  Biso   1.000  C
  C47      1.0000 0.30790  0.55602  0.61053  Biso   1.000  C
  C48      1.0000 0.69210  0.44398  0.38947  Biso   1.000  C
