data_image0
_cell_length_a       4.026
_cell_length_b       10.693
_cell_length_c       19.72
_cell_angle_alpha    90
_cell_angle_beta     90
_cell_angle_gamma    90

_symmetry_space_group_name_H-M    "P 1"
_symmetry_int_tables_number       1

loop_
  _symmetry_equiv_pos_as_xyz
  'x, y, z'

loop_
  _atom_site_label
  _atom_site_occupancy
  _atom_site_fract_x
  _atom_site_fract_y
  _atom_site_fract_z
  _atom_site_thermal_displace_type
  _atom_site_B_iso_or_equiv
  _atom_site_type_symbol
  H1       1.0000 0.14255  0.07821  0.43710  Biso   1.000  H
  H2       1.0000 0.85745  0.57821  0.06290  Biso   1.000  H
  H3       1.0000 0.85745  0.57821  0.93710  Biso   1.000  H
  H4       1.0000 0.14255  0.07821  0.56290  Biso   1.000  H
  H5       1.0000 0.14824  0.27616  0.37514  Biso   1.000  H
  H6       1.0000 0.85176  0.77616  0.12486  Biso   1.000  H
  H7       1.0000 0.85176  0.77616  0.87514  Biso   1.000  H
  H8       1.0000 0.14824  0.27616  0.62486  Biso   1.000  H
  H9       1.0000 0.65504  0.90144  0.43753  Biso   1.000  H
  H10      1.0000 0.34496  0.40144  0.06247  Biso   1.000  H
  H11      1.0000 0.34496  0.40144  0.93753  Biso   1.000  H
  H12      1.0000 0.65504  0.90144  0.56247  Biso   1.000  H
  H13      1.0000 0.83368  0.80902  0.33241  Biso   1.000  H
  H14      1.0000 0.16632  0.30902  0.16759  Biso   1.000  H
  H15      1.0000 0.16632  0.30902  0.83241  Biso   1.000  H
  H16      1.0000 0.83368  0.80902  0.66759  Biso   1.000  H
  H17      1.0000 0.05278  0.73299  0.22742  Biso   1.000  H
  H18      1.0000 0.94722  0.23299  0.27258  Biso   1.000  H
  H19      1.0000 0.94722  0.23299  0.72742  Biso   1.000  H
  H20      1.0000 0.05278  0.73299  0.77258  Biso   1.000  H
  H21      1.0000 0.38571  0.58168  0.16293  Biso   1.000  H
  H22      1.0000 0.61429  0.08168  0.33707  Biso   1.000  H
  H23      1.0000 0.61429  0.08168  0.66293  Biso   1.000  H
  H24      1.0000 0.38571  0.58168  0.83707  Biso   1.000  H
  H25      1.0000 0.64172  0.40269  0.22137  Biso   1.000  H
  H26      1.0000 0.35828  0.90269  0.27863  Biso   1.000  H
  H27      1.0000 0.35828  0.90269  0.72137  Biso   1.000  H
  H28      1.0000 0.64172  0.40269  0.77863  Biso   1.000  H
  H29      1.0000 0.55780  0.36663  0.34194  Biso   1.000  H
  H30      1.0000 0.44220  0.86663  0.15806  Biso   1.000  H
  H31      1.0000 0.44220  0.86663  0.84194  Biso   1.000  H
  H32      1.0000 0.55780  0.36663  0.65806  Biso   1.000  H
  C1       1.0000 0.16100  0.16600  0.46500  Biso   1.000  C
  C2       1.0000 0.83900  0.66600  0.03500  Biso   1.000  C
  C3       1.0000 0.83900  0.66600  0.96500  Biso   1.000  C
  C4       1.0000 0.16100  0.16600  0.53500  Biso   1.000  C
  C5       1.0000 0.16900  0.27800  0.43000  Biso   1.000  C
  C6       1.0000 0.83100  0.77800  0.07000  Biso   1.000  C
  C7       1.0000 0.83100  0.77800  0.93000  Biso   1.000  C
  C8       1.0000 0.16900  0.27800  0.57000  Biso   1.000  C
  C9       1.0000 0.18100  0.39500  0.46400  Biso   1.000  C
  C10      1.0000 0.81900  0.89500  0.03600  Biso   1.000  C
  C11      1.0000 0.81900  0.89500  0.96400  Biso   1.000  C
  C12      1.0000 0.18100  0.39500  0.53600  Biso   1.000  C
  C13      1.0000 0.15100  0.51300  0.42600  Biso   1.000  C
  C14      1.0000 0.84900  0.01300  0.07400  Biso   1.000  C
  C15      1.0000 0.84900  0.01300  0.92600  Biso   1.000  C
  C16      1.0000 0.15100  0.51300  0.57400  Biso   1.000  C
  C17      1.0000 0.02200  0.61400  0.46300  Biso   1.000  C
  C18      1.0000 0.97800  0.11400  0.03700  Biso   1.000  C
  C19      1.0000 0.97800  0.11400  0.96300  Biso   1.000  C
  C20      1.0000 0.02200  0.61400  0.53700  Biso   1.000  C
  C21      1.0000 0.90800  0.72400  0.42900  Biso   1.000  C
  C22      1.0000 0.09200  0.22400  0.07100  Biso   1.000  C
  C23      1.0000 0.09200  0.22400  0.92900  Biso   1.000  C
  C24      1.0000 0.90800  0.72400  0.57100  Biso   1.000  C
  C25      1.0000 0.76300  0.82400  0.46600  Biso   1.000  C
  C26      1.0000 0.23700  0.32400  0.03400  Biso   1.000  C
  C27      1.0000 0.23700  0.32400  0.96600  Biso   1.000  C
  C28      1.0000 0.76300  0.82400  0.53400  Biso   1.000  C
  C29      1.0000 0.93300  0.72900  0.36000  Biso   1.000  C
  C30      1.0000 0.06700  0.22900  0.14000  Biso   1.000  C
  C31      1.0000 0.06700  0.22900  0.86000  Biso   1.000  C
  C32      1.0000 0.93300  0.72900  0.64000  Biso   1.000  C
  C33      1.0000 0.10000  0.63600  0.32300  Biso   1.000  C
  C34      1.0000 0.90000  0.13600  0.17700  Biso   1.000  C
  C35      1.0000 0.90000  0.13600  0.82300  Biso   1.000  C
  C36      1.0000 0.10000  0.63600  0.67700  Biso   1.000  C
  C37      1.0000 0.23300  0.52600  0.35500  Biso   1.000  C
  C38      1.0000 0.76700  0.02600  0.14500  Biso   1.000  C
  C39      1.0000 0.76700  0.02600  0.85500  Biso   1.000  C
  C40      1.0000 0.23300  0.52600  0.64500  Biso   1.000  C
  C41      1.0000 0.16000  0.65100  0.25200  Biso   1.000  C
  C42      1.0000 0.84000  0.15100  0.24800  Biso   1.000  C
  C43      1.0000 0.84000  0.15100  0.75200  Biso   1.000  C
  C44      1.0000 0.16000  0.65100  0.74800  Biso   1.000  C
  C45      1.0000 0.34100  0.56800  0.21700  Biso   1.000  C
  C46      1.0000 0.65900  0.06800  0.28300  Biso   1.000  C
  C47      1.0000 0.65900  0.06800  0.71700  Biso   1.000  C
  C48      1.0000 0.34100  0.56800  0.78300  Biso   1.000  C
  C49      1.0000 0.48000  0.46500  0.25000  Biso   1.000  C
  C50      1.0000 0.52000  0.96500  0.25000  Biso   1.000  C
  C51      1.0000 0.52000  0.96500  0.75000  Biso   1.000  C
  C52      1.0000 0.48000  0.46500  0.75000  Biso   1.000  C
  C53      1.0000 0.43300  0.44400  0.31700  Biso   1.000  C
  C54      1.0000 0.56700  0.94400  0.18300  Biso   1.000  C
  C55      1.0000 0.56700  0.94400  0.81700  Biso   1.000  C
  C56      1.0000 0.43300  0.44400  0.68300  Biso   1.000  C
