data_image0
_cell_length_a       10.239
_cell_length_b       10.786
_cell_length_c       11.132
_cell_angle_alpha    90
_cell_angle_beta     100.92
_cell_angle_gamma    90

_symmetry_space_group_name_H-M    "P 1"
_symmetry_int_tables_number       1

loop_
  _symmetry_equiv_pos_as_xyz
  'x, y, z'

loop_
  _atom_site_label
  _atom_site_occupancy
  _atom_site_fract_x
  _atom_site_fract_y
  _atom_site_fract_z
  _atom_site_thermal_displace_type
  _atom_site_B_iso_or_equiv
  _atom_site_type_symbol
  H1       1.0000 0.01296  0.22880  0.17558  Biso   1.000  H
  H2       1.0000 0.98704  0.72880  0.32442  Biso   1.000  H
  H3       1.0000 0.98704  0.77120  0.82442  Biso   1.000  H
  H4       1.0000 0.01296  0.27120  0.67558  Biso   1.000  H
  H5       1.0000 0.90628  0.39284  0.03168  Biso   1.000  H
  H6       1.0000 0.09372  0.89284  0.46832  Biso   1.000  H
  H7       1.0000 0.09372  0.60716  0.96832  Biso   1.000  H
  H8       1.0000 0.90628  0.10716  0.53168  Biso   1.000  H
  H9       1.0000 0.66667  0.39692  0.96326  Biso   1.000  H
  H10      1.0000 0.33333  0.89692  0.53674  Biso   1.000  H
  H11      1.0000 0.33333  0.60308  0.03674  Biso   1.000  H
  H12      1.0000 0.66667  0.10308  0.46326  Biso   1.000  H
  H13      1.0000 0.47505  0.40118  0.91165  Biso   1.000  H
  H14      1.0000 0.52495  0.90118  0.58835  Biso   1.000  H
  H15      1.0000 0.52495  0.59882  0.08835  Biso   1.000  H
  H16      1.0000 0.47505  0.09882  0.41165  Biso   1.000  H
  H17      1.0000 0.23480  0.40337  0.84330  Biso   1.000  H
  H18      1.0000 0.76520  0.90337  0.65670  Biso   1.000  H
  H19      1.0000 0.76520  0.59663  0.15670  Biso   1.000  H
  H20      1.0000 0.23480  0.09663  0.34330  Biso   1.000  H
  H21      1.0000 0.09553  0.24223  0.91706  Biso   1.000  H
  H22      1.0000 0.90447  0.74223  0.58294  Biso   1.000  H
  H23      1.0000 0.90447  0.75777  0.08294  Biso   1.000  H
  H24      1.0000 0.09553  0.25777  0.41706  Biso   1.000  H
  H25      1.0000 0.07634  0.05594  0.03727  Biso   1.000  H
  H26      1.0000 0.92366  0.55594  0.46273  Biso   1.000  H
  H27      1.0000 0.92366  0.94406  0.96273  Biso   1.000  H
  H28      1.0000 0.07634  0.44406  0.53727  Biso   1.000  H
  H29      1.0000 0.18326  0.88521  0.16940  Biso   1.000  H
  H30      1.0000 0.81674  0.38521  0.33060  Biso   1.000  H
  H31      1.0000 0.81674  0.11479  0.83060  Biso   1.000  H
  H32      1.0000 0.18326  0.61479  0.66940  Biso   1.000  H
  H33      1.0000 0.42370  0.87968  0.23571  Biso   1.000  H
  H34      1.0000 0.57630  0.37968  0.26429  Biso   1.000  H
  H35      1.0000 0.57630  0.12032  0.76429  Biso   1.000  H
  H36      1.0000 0.42370  0.62032  0.73571  Biso   1.000  H
  H37      1.0000 0.61375  0.88085  0.29442  Biso   1.000  H
  H38      1.0000 0.38625  0.38085  0.20558  Biso   1.000  H
  H39      1.0000 0.38625  0.11915  0.70558  Biso   1.000  H
  H40      1.0000 0.61375  0.61915  0.79442  Biso   1.000  H
  H41      1.0000 0.85309  0.88022  0.36354  Biso   1.000  H
  H42      1.0000 0.14691  0.38022  0.13646  Biso   1.000  H
  H43      1.0000 0.14691  0.11978  0.63646  Biso   1.000  H
  H44      1.0000 0.85309  0.61978  0.86354  Biso   1.000  H
  H45      1.0000 0.99414  0.04281  0.29319  Biso   1.000  H
  H46      1.0000 0.00586  0.54281  0.20681  Biso   1.000  H
  H47      1.0000 0.00586  0.95719  0.70681  Biso   1.000  H
  H48      1.0000 0.99414  0.45719  0.79319  Biso   1.000  H
  C1       1.0000 0.90560  0.23160  0.14380  Biso   1.000  C
  C2       1.0000 0.09440  0.73160  0.35620  Biso   1.000  C
  C3       1.0000 0.09440  0.76840  0.85620  Biso   1.000  C
  C4       1.0000 0.90560  0.26840  0.64380  Biso   1.000  C
  C5       1.0000 0.84690  0.32170  0.06550  Biso   1.000  C
  C6       1.0000 0.15310  0.82170  0.43450  Biso   1.000  C
  C7       1.0000 0.15310  0.67830  0.93450  Biso   1.000  C
  C8       1.0000 0.84690  0.17830  0.56550  Biso   1.000  C
  C9       1.0000 0.70830  0.32360  0.02600  Biso   1.000  C
  C10      1.0000 0.29170  0.82360  0.47400  Biso   1.000  C
  C11      1.0000 0.29170  0.67640  0.97400  Biso   1.000  C
  C12      1.0000 0.70830  0.17640  0.52600  Biso   1.000  C
  C13      1.0000 0.41730  0.32880  0.94540  Biso   1.000  C
  C14      1.0000 0.58270  0.82880  0.55460  Biso   1.000  C
  C15      1.0000 0.58270  0.67120  0.05460  Biso   1.000  C
  C16      1.0000 0.41730  0.17120  0.44540  Biso   1.000  C
  C17      1.0000 0.27930  0.33080  0.90580  Biso   1.000  C
  C18      1.0000 0.72070  0.83080  0.59420  Biso   1.000  C
  C19      1.0000 0.72070  0.66920  0.09420  Biso   1.000  C
  C20      1.0000 0.27930  0.16920  0.40580  Biso   1.000  C
  C21      1.0000 0.20350  0.24280  0.94660  Biso   1.000  C
  C22      1.0000 0.79650  0.74280  0.55340  Biso   1.000  C
  C23      1.0000 0.79650  0.75720  0.05340  Biso   1.000  C
  C24      1.0000 0.20350  0.25720  0.44660  Biso   1.000  C
  C25      1.0000 0.18380  0.05220  0.06750  Biso   1.000  C
  C26      1.0000 0.81620  0.55220  0.43250  Biso   1.000  C
  C27      1.0000 0.81620  0.94780  0.93250  Biso   1.000  C
  C28      1.0000 0.18380  0.44780  0.56750  Biso   1.000  C
  C29      1.0000 0.24270  0.95920  0.14030  Biso   1.000  C
  C30      1.0000 0.75730  0.45920  0.35970  Biso   1.000  C
  C31      1.0000 0.75730  0.04080  0.85970  Biso   1.000  C
  C32      1.0000 0.24270  0.54080  0.64030  Biso   1.000  C
  C33      1.0000 0.38080  0.95650  0.17830  Biso   1.000  C
  C34      1.0000 0.61920  0.45650  0.32170  Biso   1.000  C
  C35      1.0000 0.61920  0.04350  0.82170  Biso   1.000  C
  C36      1.0000 0.38080  0.54350  0.67830  Biso   1.000  C
  C37      1.0000 0.67090  0.95510  0.26330  Biso   1.000  C
  C38      1.0000 0.32910  0.45510  0.23670  Biso   1.000  C
  C39      1.0000 0.32910  0.04490  0.73670  Biso   1.000  C
  C40      1.0000 0.67090  0.54490  0.76330  Biso   1.000  C
  C41      1.0000 0.80900  0.95400  0.30250  Biso   1.000  C
  C42      1.0000 0.19100  0.45400  0.19750  Biso   1.000  C
  C43      1.0000 0.19100  0.04600  0.69750  Biso   1.000  C
  C44      1.0000 0.80900  0.54600  0.80250  Biso   1.000  C
  C45      1.0000 0.88620  0.04370  0.26490  Biso   1.000  C
  C46      1.0000 0.11380  0.54370  0.23510  Biso   1.000  C
  C47      1.0000 0.11380  0.95630  0.73510  Biso   1.000  C
  C48      1.0000 0.88620  0.45630  0.76490  Biso   1.000  C
  C49      1.0000 0.82640  0.13930  0.18530  Biso   1.000  C
  C50      1.0000 0.17360  0.63930  0.31470  Biso   1.000  C
  C51      1.0000 0.17360  0.86070  0.81470  Biso   1.000  C
  C52      1.0000 0.82640  0.36070  0.68530  Biso   1.000  C
  C53      1.0000 0.62670  0.23600  0.06360  Biso   1.000  C
  C54      1.0000 0.37330  0.73600  0.43640  Biso   1.000  C
  C55      1.0000 0.37330  0.76400  0.93640  Biso   1.000  C
  C56      1.0000 0.62670  0.26400  0.56360  Biso   1.000  C
  C57      1.0000 0.48100  0.23895  0.02340  Biso   1.000  C
  C58      1.0000 0.51900  0.73895  0.47660  Biso   1.000  C
  C59      1.0000 0.51900  0.76105  0.97660  Biso   1.000  C
  C60      1.0000 0.48100  0.26105  0.52340  Biso   1.000  C
  C61      1.0000 0.26190  0.14650  0.02680  Biso   1.000  C
  C62      1.0000 0.73810  0.64650  0.47320  Biso   1.000  C
  C63      1.0000 0.73810  0.85350  0.97320  Biso   1.000  C
  C64      1.0000 0.26190  0.35350  0.52680  Biso   1.000  C
  C65      1.0000 0.46220  0.04710  0.14420  Biso   1.000  C
  C66      1.0000 0.53780  0.54710  0.35580  Biso   1.000  C
  C67      1.0000 0.53780  0.95290  0.85580  Biso   1.000  C
  C68      1.0000 0.46220  0.45290  0.64420  Biso   1.000  C
  C69      1.0000 0.60820  0.04620  0.18640  Biso   1.000  C
  C70      1.0000 0.39180  0.54620  0.31360  Biso   1.000  C
  C71      1.0000 0.39180  0.95380  0.81360  Biso   1.000  C
  C72      1.0000 0.60820  0.45380  0.68640  Biso   1.000  C
  C73      1.0000 0.68580  0.14130  0.14530  Biso   1.000  C
  C74      1.0000 0.31420  0.64130  0.35470  Biso   1.000  C
  C75      1.0000 0.31420  0.85870  0.85470  Biso   1.000  C
  C76      1.0000 0.68580  0.35870  0.64530  Biso   1.000  C
  C77      1.0000 0.40280  0.14530  0.06540  Biso   1.000  C
  C78      1.0000 0.59720  0.64530  0.43460  Biso   1.000  C
  C79      1.0000 0.59720  0.85470  0.93460  Biso   1.000  C
  C80      1.0000 0.40280  0.35470  0.56540  Biso   1.000  C
