data_image0
_cell_length_a       8.2047
_cell_length_b       16.2708
_cell_length_c       21.3824
_cell_angle_alpha    90
_cell_angle_beta     90
_cell_angle_gamma    102.978

_symmetry_space_group_name_H-M    "P 1"
_symmetry_int_tables_number       1

loop_
  _symmetry_equiv_pos_as_xyz
  'x, y, z'

loop_
  _atom_site_label
  _atom_site_occupancy
  _atom_site_fract_x
  _atom_site_fract_y
  _atom_site_fract_z
  _atom_site_thermal_displace_type
  _atom_site_B_iso_or_equiv
  _atom_site_type_symbol
  H1       1.0000 0.09817  0.59205  0.85951  Biso   1.000  H
  H2       1.0000 0.90183  0.40795  0.14049  Biso   1.000  H
  H3       1.0000 0.40183  0.90795  0.35951  Biso   1.000  H
  H4       1.0000 0.59817  0.09205  0.64049  Biso   1.000  H
  H5       1.0000 0.97861  0.45143  0.81774  Biso   1.000  H
  H6       1.0000 0.02139  0.54857  0.18226  Biso   1.000  H
  H7       1.0000 0.52139  0.04857  0.31774  Biso   1.000  H
  H8       1.0000 0.47861  0.95143  0.68226  Biso   1.000  H
  H9       1.0000 0.67619  0.38839  0.82863  Biso   1.000  H
  H10      1.0000 0.32381  0.61161  0.17137  Biso   1.000  H
  H11      1.0000 0.82381  0.11161  0.32863  Biso   1.000  H
  H12      1.0000 0.17619  0.88839  0.67137  Biso   1.000  H
  H13      1.0000 0.40611  0.39255  0.87233  Biso   1.000  H
  H14      1.0000 0.59389  0.60745  0.12767  Biso   1.000  H
  H15      1.0000 0.09389  0.10745  0.37233  Biso   1.000  H
  H16      1.0000 0.90611  0.89255  0.62767  Biso   1.000  H
  H17      1.0000 0.22389  0.46576  0.93186  Biso   1.000  H
  H18      1.0000 0.77611  0.53424  0.06814  Biso   1.000  H
  H19      1.0000 0.27611  0.03424  0.43186  Biso   1.000  H
  H20      1.0000 0.72389  0.96576  0.56814  Biso   1.000  H
  H21      1.0000 0.18640  0.58584  0.99373  Biso   1.000  H
  H22      1.0000 0.81360  0.41416  0.00627  Biso   1.000  H
  H23      1.0000 0.31360  0.91416  0.49373  Biso   1.000  H
  H24      1.0000 0.68640  0.08584  0.50627  Biso   1.000  H
  H25      1.0000 0.30118  0.72807  0.03794  Biso   1.000  H
  H26      1.0000 0.69882  0.27193  0.96206  Biso   1.000  H
  H27      1.0000 0.19882  0.77193  0.53794  Biso   1.000  H
  H28      1.0000 0.80118  0.22807  0.46206  Biso   1.000  H
  H29      1.0000 0.59501  0.79523  0.02569  Biso   1.000  H
  H30      1.0000 0.40499  0.20477  0.97431  Biso   1.000  H
  H31      1.0000 0.90499  0.70477  0.52569  Biso   1.000  H
  H32      1.0000 0.09501  0.29523  0.47431  Biso   1.000  H
  H33      1.0000 0.84584  0.69692  0.11071  Biso   1.000  H
  H34      1.0000 0.15416  0.30308  0.88929  Biso   1.000  H
  H35      1.0000 0.65416  0.80308  0.61071  Biso   1.000  H
  H36      1.0000 0.34584  0.19692  0.38929  Biso   1.000  H
  H37      1.0000 0.74143  0.73484  0.21269  Biso   1.000  H
  H38      1.0000 0.25857  0.26516  0.78731  Biso   1.000  H
  H39      1.0000 0.75857  0.76516  0.71269  Biso   1.000  H
  H40      1.0000 0.24143  0.23484  0.28731  Biso   1.000  H
  H41      1.0000 0.70000  0.88026  0.23031  Biso   1.000  H
  H42      1.0000 0.30000  0.11974  0.76969  Biso   1.000  H
  H43      1.0000 0.80000  0.61974  0.73031  Biso   1.000  H
  H44      1.0000 0.20000  0.38026  0.26969  Biso   1.000  H
  H45      1.0000 0.75847  0.98486  0.14408  Biso   1.000  H
  H46      1.0000 0.24153  0.01514  0.85592  Biso   1.000  H
  H47      1.0000 0.74153  0.51514  0.64408  Biso   1.000  H
  H48      1.0000 0.25847  0.48486  0.35592  Biso   1.000  H
  H49      1.0000 0.85569  0.94534  0.04188  Biso   1.000  H
  H50      1.0000 0.14431  0.05466  0.95812  Biso   1.000  H
  H51      1.0000 0.64431  0.55466  0.54188  Biso   1.000  H
  H52      1.0000 0.35569  0.44534  0.45812  Biso   1.000  H
  H53      1.0000 0.96536  0.74868  0.78283  Biso   1.000  H
  H54      1.0000 0.03464  0.25132  0.21717  Biso   1.000  H
  H55      1.0000 0.53464  0.75132  0.28283  Biso   1.000  H
  H56      1.0000 0.46536  0.24868  0.71717  Biso   1.000  H
  H57      1.0000 0.10491  0.73098  0.68281  Biso   1.000  H
  H58      1.0000 0.89509  0.26902  0.31719  Biso   1.000  H
  H59      1.0000 0.39509  0.76902  0.18281  Biso   1.000  H
  H60      1.0000 0.60491  0.23098  0.81719  Biso   1.000  H
  H61      1.0000 0.39150  0.70532  0.68320  Biso   1.000  H
  H62      1.0000 0.60850  0.29468  0.31680  Biso   1.000  H
  H63      1.0000 0.10850  0.79468  0.18320  Biso   1.000  H
  H64      1.0000 0.89150  0.20532  0.81680  Biso   1.000  H
  H65      1.0000 0.53677  0.69760  0.78421  Biso   1.000  H
  H66      1.0000 0.46323  0.30240  0.21579  Biso   1.000  H
  H67      1.0000 0.96323  0.80240  0.28421  Biso   1.000  H
  H68      1.0000 0.03677  0.19760  0.71579  Biso   1.000  H
  H69      1.0000 0.39927  0.71769  0.88322  Biso   1.000  H
  H70      1.0000 0.60073  0.28231  0.11678  Biso   1.000  H
  H71      1.0000 0.10073  0.78231  0.38322  Biso   1.000  H
  H72      1.0000 0.89927  0.21769  0.61678  Biso   1.000  H
  H73      1.0000 0.37743  0.86335  0.87426  Biso   1.000  H
  H74      1.0000 0.62257  0.13665  0.12574  Biso   1.000  H
  H75      1.0000 0.12257  0.63665  0.37426  Biso   1.000  H
  H76      1.0000 0.87743  0.36335  0.62574  Biso   1.000  H
  H77      1.0000 0.13224  0.91142  0.07933  Biso   1.000  H
  H78      1.0000 0.86776  0.08858  0.92067  Biso   1.000  H
  H79      1.0000 0.36776  0.58858  0.57933  Biso   1.000  H
  H80      1.0000 0.63224  0.41142  0.42067  Biso   1.000  H
  H81      1.0000 0.56259  0.05448  0.82333  Biso   1.000  H
  H82      1.0000 0.43741  0.94552  0.17667  Biso   1.000  H
  H83      1.0000 0.93741  0.44552  0.32333  Biso   1.000  H
  H84      1.0000 0.06259  0.55448  0.67667  Biso   1.000  H
  H85      1.0000 0.72877  0.03097  0.73141  Biso   1.000  H
  H86      1.0000 0.27123  0.96903  0.26859  Biso   1.000  H
  H87      1.0000 0.77123  0.46903  0.23141  Biso   1.000  H
  H88      1.0000 0.22877  0.53097  0.76859  Biso   1.000  H
  H89      1.0000 0.91701  0.93241  0.73774  Biso   1.000  H
  H90      1.0000 0.08299  0.06759  0.26226  Biso   1.000  H
  H91      1.0000 0.58299  0.56759  0.23774  Biso   1.000  H
  H92      1.0000 0.41701  0.43241  0.76226  Biso   1.000  H
  H93      1.0000 0.93884  0.85780  0.83748  Biso   1.000  H
  H94      1.0000 0.06116  0.14220  0.16252  Biso   1.000  H
  H95      1.0000 0.56116  0.64220  0.33748  Biso   1.000  H
  H96      1.0000 0.43884  0.35780  0.66252  Biso   1.000  H
  H97      1.0000 0.77304  0.88040  0.92840  Biso   1.000  H
  H98      1.0000 0.22696  0.11960  0.07160  Biso   1.000  H
  H99      1.0000 0.72696  0.61960  0.42840  Biso   1.000  H
  H100     1.0000 0.27304  0.38040  0.57160  Biso   1.000  H
  C1       1.0000 0.96490  0.56676  0.86485  Biso   1.000  C
  C2       1.0000 0.03510  0.43324  0.13515  Biso   1.000  C
  C3       1.0000 0.53510  0.93324  0.36485  Biso   1.000  C
  C4       1.0000 0.46490  0.06676  0.63515  Biso   1.000  C
  C5       1.0000 0.89710  0.48597  0.84138  Biso   1.000  C
  C6       1.0000 0.10290  0.51403  0.15862  Biso   1.000  C
  C7       1.0000 0.60290  0.01403  0.34138  Biso   1.000  C
  C8       1.0000 0.39710  0.98597  0.65862  Biso   1.000  C
  C9       1.0000 0.72990  0.45070  0.84776  Biso   1.000  C
  C10      1.0000 0.27010  0.54930  0.15224  Biso   1.000  C
  C11      1.0000 0.77010  0.04930  0.34776  Biso   1.000  C
  C12      1.0000 0.22990  0.95070  0.65224  Biso   1.000  C
  C13      1.0000 0.62750  0.49350  0.88096  Biso   1.000  C
  C14      1.0000 0.37250  0.50650  0.11904  Biso   1.000  C
  C15      1.0000 0.87250  0.00650  0.38096  Biso   1.000  C
  C16      1.0000 0.12750  0.99350  0.61904  Biso   1.000  C
  C17      1.0000 0.45420  0.45558  0.89102  Biso   1.000  C
  C18      1.0000 0.54580  0.54442  0.10898  Biso   1.000  C
  C19      1.0000 0.04580  0.04442  0.39102  Biso   1.000  C
  C20      1.0000 0.95420  0.95558  0.60898  Biso   1.000  C
  C21      1.0000 0.35550  0.49524  0.92403  Biso   1.000  C
  C22      1.0000 0.64450  0.50476  0.07597  Biso   1.000  C
  C23      1.0000 0.14450  0.00476  0.42403  Biso   1.000  C
  C24      1.0000 0.85550  0.99524  0.57597  Biso   1.000  C
  C25      1.0000 0.41990  0.57634  0.95186  Biso   1.000  C
  C26      1.0000 0.58010  0.42366  0.04814  Biso   1.000  C
  C27      1.0000 0.08010  0.92366  0.45186  Biso   1.000  C
  C28      1.0000 0.91990  0.07634  0.54814  Biso   1.000  C
  C29      1.0000 0.31780  0.61667  0.98736  Biso   1.000  C
  C30      1.0000 0.68220  0.38333  0.01264  Biso   1.000  C
  C31      1.0000 0.18220  0.88333  0.48736  Biso   1.000  C
  C32      1.0000 0.81780  0.11667  0.51264  Biso   1.000  C
  C33      1.0000 0.38190  0.69492  0.01249  Biso   1.000  C
  C34      1.0000 0.61810  0.30508  0.98751  Biso   1.000  C
  C35      1.0000 0.11810  0.80508  0.51249  Biso   1.000  C
  C36      1.0000 0.88190  0.19492  0.48751  Biso   1.000  C
  C37      1.0000 0.55090  0.73283  0.00596  Biso   1.000  C
  C38      1.0000 0.44910  0.26717  0.99404  Biso   1.000  C
  C39      1.0000 0.94910  0.76717  0.50596  Biso   1.000  C
  C40      1.0000 0.05090  0.23283  0.49404  Biso   1.000  C
  C41      1.0000 0.66130  0.69304  0.97463  Biso   1.000  C
  C42      1.0000 0.33870  0.30696  0.02537  Biso   1.000  C
  C43      1.0000 0.83870  0.80696  0.47463  Biso   1.000  C
  C44      1.0000 0.16130  0.19304  0.52537  Biso   1.000  C
  C45      1.0000 0.59290  0.61536  0.94400  Biso   1.000  C
  C46      1.0000 0.40710  0.38464  0.05600  Biso   1.000  C
  C47      1.0000 0.90710  0.88464  0.44400  Biso   1.000  C
  C48      1.0000 0.09290  0.11536  0.55600  Biso   1.000  C
  C49      1.0000 0.69660  0.57477  0.90632  Biso   1.000  C
  C50      1.0000 0.30340  0.42523  0.09368  Biso   1.000  C
  C51      1.0000 0.80340  0.92523  0.40632  Biso   1.000  C
  C52      1.0000 0.19660  0.07477  0.59368  Biso   1.000  C
  C53      1.0000 0.86630  0.61398  0.89492  Biso   1.000  C
  C54      1.0000 0.13370  0.38602  0.10508  Biso   1.000  C
  C55      1.0000 0.63370  0.88602  0.39492  Biso   1.000  C
  C56      1.0000 0.36630  0.11398  0.60508  Biso   1.000  C
  C57      1.0000 0.93670  0.70001  0.91963  Biso   1.000  C
  C58      1.0000 0.06330  0.29999  0.08037  Biso   1.000  C
  C59      1.0000 0.56330  0.79999  0.41963  Biso   1.000  C
  C60      1.0000 0.43670  0.20001  0.58037  Biso   1.000  C
  C61      1.0000 0.84350  0.73043  0.96961  Biso   1.000  C
  C62      1.0000 0.15650  0.26957  0.03039  Biso   1.000  C
  C63      1.0000 0.65650  0.76957  0.46961  Biso   1.000  C
  C64      1.0000 0.34350  0.23043  0.53039  Biso   1.000  C
  C65      1.0000 0.92680  0.79390  0.00907  Biso   1.000  C
  C66      1.0000 0.07320  0.20610  0.99093  Biso   1.000  C
  C67      1.0000 0.57320  0.70610  0.50907  Biso   1.000  C
  C68      1.0000 0.42680  0.29390  0.49093  Biso   1.000  C
  C69      1.0000 0.85570  0.81785  0.06907  Biso   1.000  C
  C70      1.0000 0.14430  0.18215  0.93093  Biso   1.000  C
  C71      1.0000 0.64430  0.68215  0.56907  Biso   1.000  C
  C72      1.0000 0.35570  0.31785  0.43093  Biso   1.000  C
  C73      1.0000 0.82310  0.75972  0.11781  Biso   1.000  C
  C74      1.0000 0.17690  0.24028  0.88219  Biso   1.000  C
  C75      1.0000 0.67690  0.74028  0.61781  Biso   1.000  C
  C76      1.0000 0.32310  0.25972  0.38219  Biso   1.000  C
  C77      1.0000 0.76460  0.78154  0.17526  Biso   1.000  C
  C78      1.0000 0.23540  0.21846  0.82474  Biso   1.000  C
  C79      1.0000 0.73540  0.71846  0.67526  Biso   1.000  C
  C80      1.0000 0.26460  0.28154  0.32474  Biso   1.000  C
  C81      1.0000 0.74180  0.86213  0.18499  Biso   1.000  C
  C82      1.0000 0.25820  0.13787  0.81501  Biso   1.000  C
  C83      1.0000 0.75820  0.63787  0.68499  Biso   1.000  C
  C84      1.0000 0.24180  0.36213  0.31501  Biso   1.000  C
  C85      1.0000 0.77450  0.92092  0.13686  Biso   1.000  C
  C86      1.0000 0.22550  0.07908  0.86314  Biso   1.000  C
  C87      1.0000 0.72550  0.57908  0.63686  Biso   1.000  C
  C88      1.0000 0.27450  0.42092  0.36314  Biso   1.000  C
  C89      1.0000 0.83080  0.89875  0.07933  Biso   1.000  C
  C90      1.0000 0.16920  0.10125  0.92067  Biso   1.000  C
  C91      1.0000 0.66920  0.60125  0.57933  Biso   1.000  C
  C92      1.0000 0.33080  0.39875  0.42067  Biso   1.000  C
  C93      1.0000 0.09460  0.83903  0.99462  Biso   1.000  C
  C94      1.0000 0.90540  0.16097  0.00538  Biso   1.000  C
  C95      1.0000 0.40540  0.66097  0.49462  Biso   1.000  C
  C96      1.0000 0.59460  0.33903  0.50538  Biso   1.000  C
  C97      1.0000 0.16900  0.82228  0.93598  Biso   1.000  C
  C98      1.0000 0.83100  0.17772  0.06402  Biso   1.000  C
  C99      1.0000 0.33100  0.67772  0.43598  Biso   1.000  C
  C100     1.0000 0.66900  0.32228  0.56402  Biso   1.000  C
  C101     1.0000 0.08780  0.74968  0.89961  Biso   1.000  C
  C102     1.0000 0.91220  0.25032  0.10039  Biso   1.000  C
  C103     1.0000 0.41220  0.75032  0.39961  Biso   1.000  C
  C104     1.0000 0.58780  0.24968  0.60039  Biso   1.000  C
  C105     1.0000 0.17240  0.73477  0.83989  Biso   1.000  C
  C106     1.0000 0.82760  0.26523  0.16011  Biso   1.000  C
  C107     1.0000 0.32760  0.76523  0.33989  Biso   1.000  C
  C108     1.0000 0.67240  0.23477  0.66011  Biso   1.000  C
  C109     1.0000 0.09190  0.73831  0.78287  Biso   1.000  C
  C110     1.0000 0.90810  0.26169  0.21713  Biso   1.000  C
  C111     1.0000 0.40810  0.76169  0.28287  Biso   1.000  C
  C112     1.0000 0.59190  0.23831  0.71713  Biso   1.000  C
  C113     1.0000 0.17060  0.72855  0.72685  Biso   1.000  C
  C114     1.0000 0.82940  0.27145  0.27315  Biso   1.000  C
  C115     1.0000 0.32940  0.77145  0.22685  Biso   1.000  C
  C116     1.0000 0.67060  0.22855  0.77315  Biso   1.000  C
  C117     1.0000 0.33040  0.71454  0.72700  Biso   1.000  C
  C118     1.0000 0.66960  0.28546  0.27300  Biso   1.000  C
  C119     1.0000 0.16960  0.78546  0.22700  Biso   1.000  C
  C120     1.0000 0.83040  0.21454  0.77300  Biso   1.000  C
  C121     1.0000 0.41190  0.71014  0.78347  Biso   1.000  C
  C122     1.0000 0.58810  0.28986  0.21653  Biso   1.000  C
  C123     1.0000 0.08810  0.78986  0.28347  Biso   1.000  C
  C124     1.0000 0.91190  0.21014  0.71653  Biso   1.000  C
  C125     1.0000 0.33440  0.72096  0.83928  Biso   1.000  C
  C126     1.0000 0.66560  0.27904  0.16072  Biso   1.000  C
  C127     1.0000 0.16560  0.77904  0.33928  Biso   1.000  C
  C128     1.0000 0.83440  0.22096  0.66072  Biso   1.000  C
  C129     1.0000 0.32210  0.87331  0.91898  Biso   1.000  C
  C130     1.0000 0.67790  0.12669  0.08102  Biso   1.000  C
  C131     1.0000 0.17790  0.62669  0.41898  Biso   1.000  C
  C132     1.0000 0.82210  0.37331  0.58102  Biso   1.000  C
  C133     1.0000 0.41390  0.93677  0.95839  Biso   1.000  C
  C134     1.0000 0.58610  0.06323  0.04161  Biso   1.000  C
  C135     1.0000 0.08610  0.56323  0.45839  Biso   1.000  C
  C136     1.0000 0.91390  0.43677  0.54161  Biso   1.000  C
  C137     1.0000 0.34320  0.95031  0.01847  Biso   1.000  C
  C138     1.0000 0.65680  0.04969  0.98153  Biso   1.000  C
  C139     1.0000 0.15680  0.54969  0.51847  Biso   1.000  C
  C140     1.0000 0.84320  0.45031  0.48153  Biso   1.000  C
  C141     1.0000 0.18510  0.90020  0.03447  Biso   1.000  C
  C142     1.0000 0.81490  0.09980  0.96553  Biso   1.000  C
  C143     1.0000 0.31490  0.59980  0.53447  Biso   1.000  C
  C144     1.0000 0.68510  0.40020  0.46553  Biso   1.000  C
  C145     1.0000 0.57080  0.98619  0.94081  Biso   1.000  C
  C146     1.0000 0.42920  0.01381  0.05919  Biso   1.000  C
  C147     1.0000 0.92920  0.51381  0.44081  Biso   1.000  C
  C148     1.0000 0.07080  0.48619  0.55919  Biso   1.000  C
  C149     1.0000 0.65560  0.96829  0.88216  Biso   1.000  C
  C150     1.0000 0.34440  0.03171  0.11784  Biso   1.000  C
  C151     1.0000 0.84440  0.53171  0.38216  Biso   1.000  C
  C152     1.0000 0.15560  0.46829  0.61784  Biso   1.000  C
  C153     1.0000 0.64270  0.00957  0.82622  Biso   1.000  C
  C154     1.0000 0.35730  0.99043  0.17378  Biso   1.000  C
  C155     1.0000 0.85730  0.49043  0.32622  Biso   1.000  C
  C156     1.0000 0.14270  0.50957  0.67378  Biso   1.000  C
  C157     1.0000 0.73610  0.99599  0.77433  Biso   1.000  C
  C158     1.0000 0.26390  0.00401  0.22567  Biso   1.000  C
  C159     1.0000 0.76390  0.50401  0.27433  Biso   1.000  C
  C160     1.0000 0.23610  0.49599  0.72567  Biso   1.000  C
  C161     1.0000 0.84110  0.94127  0.77788  Biso   1.000  C
  C162     1.0000 0.15890  0.05873  0.22212  Biso   1.000  C
  C163     1.0000 0.65890  0.55873  0.27788  Biso   1.000  C
  C164     1.0000 0.34110  0.44127  0.72212  Biso   1.000  C
  C165     1.0000 0.85360  0.89992  0.83324  Biso   1.000  C
  C166     1.0000 0.14640  0.10008  0.16676  Biso   1.000  C
  C167     1.0000 0.64640  0.60008  0.33324  Biso   1.000  C
  C168     1.0000 0.35360  0.39992  0.66676  Biso   1.000  C
  C169     1.0000 0.76020  0.91279  0.88478  Biso   1.000  C
  C170     1.0000 0.23980  0.08721  0.11522  Biso   1.000  C
  C171     1.0000 0.73980  0.58721  0.38478  Biso   1.000  C
  C172     1.0000 0.26020  0.41279  0.61522  Biso   1.000  C
