data_image0
_cell_length_a       5.28
_cell_length_b       12.972
_cell_length_c       16.707
_cell_angle_alpha    90
_cell_angle_beta     90
_cell_angle_gamma    90

_symmetry_space_group_name_H-M    "P 1"
_symmetry_int_tables_number       1

loop_
  _symmetry_equiv_pos_as_xyz
  'x, y, z'

loop_
  _atom_site_label
  _atom_site_occupancy
  _atom_site_fract_x
  _atom_site_fract_y
  _atom_site_fract_z
  _atom_site_thermal_displace_type
  _atom_site_B_iso_or_equiv
  _atom_site_type_symbol
  H1       1.0000 0.62014  0.33336  0.54691  Biso   1.000  H
  H2       1.0000 0.87986  0.66664  0.04691  Biso   1.000  H
  H3       1.0000 0.37986  0.83336  0.95309  Biso   1.000  H
  H4       1.0000 0.12014  0.16664  0.45309  Biso   1.000  H
  H5       1.0000 0.28877  0.34722  0.64907  Biso   1.000  H
  H6       1.0000 0.21123  0.65278  0.14907  Biso   1.000  H
  H7       1.0000 0.71123  0.84722  0.85093  Biso   1.000  H
  H8       1.0000 0.78877  0.15278  0.35093  Biso   1.000  H
  H9       1.0000 0.99251  0.49730  0.64789  Biso   1.000  H
  H10      1.0000 0.50749  0.50270  0.14789  Biso   1.000  H
  H11      1.0000 0.00749  0.99730  0.85211  Biso   1.000  H
  H12      1.0000 0.49251  0.00270  0.35211  Biso   1.000  H
  H13      1.0000 0.03108  0.62911  0.54461  Biso   1.000  H
  H14      1.0000 0.46892  0.37089  0.04461  Biso   1.000  H
  H15      1.0000 0.96892  0.12911  0.95539  Biso   1.000  H
  H16      1.0000 0.53108  0.87089  0.45539  Biso   1.000  H
  H17      1.0000 0.04536  0.72634  0.45938  Biso   1.000  H
  H18      1.0000 0.45464  0.27366  0.95938  Biso   1.000  H
  H19      1.0000 0.95464  0.22634  0.04062  Biso   1.000  H
  H20      1.0000 0.54536  0.77366  0.54062  Biso   1.000  H
  H21      1.0000 0.05860  0.84924  0.34953  Biso   1.000  H
  H22      1.0000 0.44140  0.15076  0.84953  Biso   1.000  H
  H23      1.0000 0.94140  0.34924  0.15047  Biso   1.000  H
  H24      1.0000 0.55860  0.65076  0.65047  Biso   1.000  H
  H25      1.0000 0.37965  0.82972  0.24124  Biso   1.000  H
  H26      1.0000 0.12035  0.17028  0.74124  Biso   1.000  H
  H27      1.0000 0.62035  0.32972  0.25876  Biso   1.000  H
  H28      1.0000 0.87965  0.67028  0.75876  Biso   1.000  H
  H29      1.0000 0.68410  0.68760  0.24581  Biso   1.000  H
  H30      1.0000 0.81590  0.31240  0.74581  Biso   1.000  H
  H31      1.0000 0.31590  0.18760  0.25419  Biso   1.000  H
  H32      1.0000 0.18410  0.81240  0.75419  Biso   1.000  H
  H33      1.0000 0.92520  0.57858  0.25067  Biso   1.000  H
  H34      1.0000 0.57480  0.42142  0.75067  Biso   1.000  H
  H35      1.0000 0.07480  0.07858  0.24933  Biso   1.000  H
  H36      1.0000 0.42520  0.92142  0.74933  Biso   1.000  H
  H37      1.0000 0.22417  0.43587  0.25500  Biso   1.000  H
  H38      1.0000 0.27583  0.56413  0.75500  Biso   1.000  H
  H39      1.0000 0.77583  0.93587  0.24500  Biso   1.000  H
  H40      1.0000 0.72417  0.06413  0.74500  Biso   1.000  H
  H41      1.0000 0.20328  0.30746  0.36591  Biso   1.000  H
  H42      1.0000 0.29672  0.69254  0.86591  Biso   1.000  H
  H43      1.0000 0.79672  0.80746  0.13409  Biso   1.000  H
  H44      1.0000 0.70328  0.19254  0.63409  Biso   1.000  H
  H45      1.0000 0.88089  0.32384  0.46970  Biso   1.000  H
  H46      1.0000 0.61911  0.67616  0.96970  Biso   1.000  H
  H47      1.0000 0.11911  0.82384  0.03030  Biso   1.000  H
  H48      1.0000 0.38089  0.17616  0.53030  Biso   1.000  H
  C1       1.0000 0.49140  0.39870  0.54520  Biso   1.000  C
  C2       1.0000 0.00860  0.60130  0.04520  Biso   1.000  C
  C3       1.0000 0.50860  0.89870  0.95480  Biso   1.000  C
  C4       1.0000 0.99140  0.10130  0.45480  Biso   1.000  C
  C5       1.0000 0.30600  0.40670  0.60330  Biso   1.000  C
  C6       1.0000 0.19400  0.59330  0.10330  Biso   1.000  C
  C7       1.0000 0.69400  0.90670  0.89670  Biso   1.000  C
  C8       1.0000 0.80600  0.09330  0.39670  Biso   1.000  C
  C9       1.0000 0.14090  0.49060  0.60280  Biso   1.000  C
  C10      1.0000 0.35910  0.50940  0.10280  Biso   1.000  C
  C11      1.0000 0.85910  0.99060  0.89720  Biso   1.000  C
  C12      1.0000 0.64090  0.00940  0.39720  Biso   1.000  C
  C13      1.0000 0.16280  0.56480  0.54404  Biso   1.000  C
  C14      1.0000 0.33720  0.43520  0.04404  Biso   1.000  C
  C15      1.0000 0.83720  0.06480  0.95596  Biso   1.000  C
  C16      1.0000 0.66280  0.93520  0.45596  Biso   1.000  C
  C17      1.0000 0.18910  0.71690  0.41340  Biso   1.000  C
  C18      1.0000 0.31090  0.28310  0.91340  Biso   1.000  C
  C19      1.0000 0.81090  0.21690  0.08660  Biso   1.000  C
  C20      1.0000 0.68910  0.78310  0.58660  Biso   1.000  C
  C21      1.0000 0.19460  0.78620  0.35120  Biso   1.000  C
  C22      1.0000 0.30540  0.21380  0.85120  Biso   1.000  C
  C23      1.0000 0.80540  0.28620  0.14880  Biso   1.000  C
  C24      1.0000 0.69460  0.71380  0.64880  Biso   1.000  C
  C25      1.0000 0.37450  0.77520  0.29080  Biso   1.000  C
  C26      1.0000 0.12550  0.22480  0.79080  Biso   1.000  C
  C27      1.0000 0.62550  0.27520  0.20920  Biso   1.000  C
  C28      1.0000 0.87450  0.72480  0.70920  Biso   1.000  C
  C29      1.0000 0.54490  0.69460  0.29350  Biso   1.000  C
  C30      1.0000 0.95510  0.30540  0.79350  Biso   1.000  C
  C31      1.0000 0.45510  0.19460  0.20650  Biso   1.000  C
  C32      1.0000 0.04490  0.80540  0.70650  Biso   1.000  C
  C33      1.0000 0.90850  0.52280  0.29890  Biso   1.000  C
  C34      1.0000 0.59150  0.47720  0.79890  Biso   1.000  C
  C35      1.0000 0.09150  0.02280  0.20110  Biso   1.000  C
  C36      1.0000 0.40850  0.97720  0.70110  Biso   1.000  C
  C37      1.0000 0.07980  0.44220  0.30120  Biso   1.000  C
  C38      1.0000 0.42020  0.55780  0.80120  Biso   1.000  C
  C39      1.0000 0.92020  0.94220  0.19880  Biso   1.000  C
  C40      1.0000 0.57980  0.05780  0.69880  Biso   1.000  C
  C41      1.0000 0.06650  0.37030  0.36280  Biso   1.000  C
  C42      1.0000 0.43350  0.62970  0.86280  Biso   1.000  C
  C43      1.0000 0.93350  0.87030  0.13720  Biso   1.000  C
  C44      1.0000 0.56650  0.12970  0.63720  Biso   1.000  C
  C45      1.0000 0.88420  0.37990  0.42140  Biso   1.000  C
  C46      1.0000 0.61580  0.62010  0.92140  Biso   1.000  C
  C47      1.0000 0.11580  0.87990  0.07860  Biso   1.000  C
  C48      1.0000 0.38420  0.12010  0.57860  Biso   1.000  C
  C49      1.0000 0.51560  0.47270  0.48400  Biso   1.000  C
  C50      1.0000 0.98440  0.52730  0.98400  Biso   1.000  C
  C51      1.0000 0.48440  0.97270  0.01600  Biso   1.000  C
  C52      1.0000 0.01560  0.02730  0.51600  Biso   1.000  C
  C53      1.0000 0.34770  0.55730  0.48311  Biso   1.000  C
  C54      1.0000 0.15230  0.44270  0.98311  Biso   1.000  C
  C55      1.0000 0.65230  0.05730  0.01689  Biso   1.000  C
  C56      1.0000 0.84770  0.94270  0.51689  Biso   1.000  C
  C57      1.0000 0.36110  0.63370  0.41789  Biso   1.000  C
  C58      1.0000 0.13890  0.36630  0.91789  Biso   1.000  C
  C59      1.0000 0.63890  0.13370  0.08211  Biso   1.000  C
  C60      1.0000 0.86110  0.86630  0.58211  Biso   1.000  C
  C61      1.0000 0.54360  0.62210  0.35680  Biso   1.000  C
  C62      1.0000 0.95640  0.37790  0.85680  Biso   1.000  C
  C63      1.0000 0.45640  0.12210  0.14320  Biso   1.000  C
  C64      1.0000 0.04360  0.87790  0.64320  Biso   1.000  C
  C65      1.0000 0.72180  0.53520  0.35830  Biso   1.000  C
  C66      1.0000 0.77820  0.46480  0.85830  Biso   1.000  C
  C67      1.0000 0.27820  0.03520  0.14170  Biso   1.000  C
  C68      1.0000 0.22180  0.96480  0.64170  Biso   1.000  C
  C69      1.0000 0.70760  0.46190  0.42084  Biso   1.000  C
  C70      1.0000 0.79240  0.53810  0.92084  Biso   1.000  C
  C71      1.0000 0.29240  0.96190  0.07916  Biso   1.000  C
  C72      1.0000 0.20760  0.03810  0.57916  Biso   1.000  C
