data_image0
_cell_length_a       5.785
_cell_length_b       14.157
_cell_length_c       14.66
_cell_angle_alpha    90
_cell_angle_beta     90
_cell_angle_gamma    90

_symmetry_space_group_name_H-M    "P 1"
_symmetry_int_tables_number       1

loop_
  _symmetry_equiv_pos_as_xyz
  'x, y, z'

loop_
  _atom_site_label
  _atom_site_occupancy
  _atom_site_fract_x
  _atom_site_fract_y
  _atom_site_fract_z
  _atom_site_thermal_displace_type
  _atom_site_B_iso_or_equiv
  _atom_site_type_symbol
  H1       1.0000 0.68622  0.83816  0.59884  Biso   1.000  H
  H2       1.0000 0.18622  0.16184  0.90116  Biso   1.000  H
  H3       1.0000 0.81378  0.33816  0.40116  Biso   1.000  H
  H4       1.0000 0.31378  0.66184  0.09884  Biso   1.000  H
  H5       1.0000 0.12599  0.55717  0.78819  Biso   1.000  H
  H6       1.0000 0.62599  0.44283  0.71181  Biso   1.000  H
  H7       1.0000 0.37401  0.05717  0.21181  Biso   1.000  H
  H8       1.0000 0.87401  0.94283  0.28819  Biso   1.000  H
  H9       1.0000 0.32600  0.61313  0.92250  Biso   1.000  H
  H10      1.0000 0.82600  0.38687  0.57750  Biso   1.000  H
  H11      1.0000 0.17400  0.11313  0.07750  Biso   1.000  H
  H12      1.0000 0.67400  0.88687  0.42250  Biso   1.000  H
  H13      1.0000 0.65811  0.69490  0.99203  Biso   1.000  H
  H14      1.0000 0.15811  0.30510  0.50797  Biso   1.000  H
  H15      1.0000 0.84189  0.19490  0.00797  Biso   1.000  H
  H16      1.0000 0.34189  0.80510  0.49203  Biso   1.000  H
  H17      1.0000 0.95050  0.94401  0.51799  Biso   1.000  H
  H18      1.0000 0.45050  0.05599  0.98201  Biso   1.000  H
  H19      1.0000 0.54950  0.44401  0.48201  Biso   1.000  H
  H20      1.0000 0.04950  0.55599  0.01799  Biso   1.000  H
  H21      1.0000 0.32065  0.99677  0.59130  Biso   1.000  H
  H22      1.0000 0.82065  0.00323  0.90870  Biso   1.000  H
  H23      1.0000 0.17935  0.49677  0.40870  Biso   1.000  H
  H24      1.0000 0.67935  0.50323  0.09130  Biso   1.000  H
  H25      1.0000 0.40093  0.94895  0.75119  Biso   1.000  H
  H26      1.0000 0.90093  0.05105  0.74881  Biso   1.000  H
  H27      1.0000 0.09907  0.44895  0.24881  Biso   1.000  H
  H28      1.0000 0.59907  0.55105  0.25119  Biso   1.000  H
  H29      1.0000 0.28689  0.87680  0.89154  Biso   1.000  H
  H30      1.0000 0.78689  0.12320  0.60846  Biso   1.000  H
  H31      1.0000 0.21311  0.37680  0.10846  Biso   1.000  H
  H32      1.0000 0.71311  0.62320  0.39154  Biso   1.000  H
  H33      1.0000 0.99754  0.78571  0.98083  Biso   1.000  H
  H34      1.0000 0.49754  0.21429  0.51917  Biso   1.000  H
  H35      1.0000 0.50246  0.28571  0.01917  Biso   1.000  H
  H36      1.0000 0.00246  0.71429  0.48083  Biso   1.000  H
  H37      1.0000 0.71577  0.70019  0.58653  Biso   1.000  H
  H38      1.0000 0.21577  0.29981  0.91347  Biso   1.000  H
  H39      1.0000 0.78423  0.20019  0.41347  Biso   1.000  H
  H40      1.0000 0.28423  0.79981  0.08653  Biso   1.000  H
  H41      1.0000 0.40858  0.60310  0.52212  Biso   1.000  H
  H42      1.0000 0.90858  0.39690  0.97788  Biso   1.000  H
  H43      1.0000 0.09142  0.10310  0.47788  Biso   1.000  H
  H44      1.0000 0.59142  0.89690  0.02212  Biso   1.000  H
  H45      1.0000 0.10210  0.53478  0.62232  Biso   1.000  H
  H46      1.0000 0.60210  0.46522  0.87768  Biso   1.000  H
  H47      1.0000 0.39790  0.03478  0.37768  Biso   1.000  H
  H48      1.0000 0.89790  0.96522  0.12232  Biso   1.000  H
  C1       1.0000 0.84900  0.85750  0.63060  Biso   1.000  C
  C2       1.0000 0.34900  0.14250  0.86940  Biso   1.000  C
  C3       1.0000 0.65100  0.35750  0.36940  Biso   1.000  C
  C4       1.0000 0.15100  0.64250  0.13060  Biso   1.000  C
  C5       1.0000 0.78800  0.74930  0.86410  Biso   1.000  C
  C6       1.0000 0.28800  0.25070  0.63590  Biso   1.000  C
  C7       1.0000 0.71200  0.24930  0.13590  Biso   1.000  C
  C8       1.0000 0.21200  0.75070  0.36410  Biso   1.000  C
  C9       1.0000 0.58120  0.67360  0.63130  Biso   1.000  C
  C10      1.0000 0.08120  0.32640  0.86870  Biso   1.000  C
  C11      1.0000 0.91880  0.17360  0.36870  Biso   1.000  C
  C12      1.0000 0.41880  0.82640  0.13130  Biso   1.000  C
  C13      1.0000 0.41020  0.61710  0.59520  Biso   1.000  C
  C14      1.0000 0.91020  0.38290  0.90480  Biso   1.000  C
  C15      1.0000 0.08980  0.11710  0.40480  Biso   1.000  C
  C16      1.0000 0.58980  0.88290  0.09520  Biso   1.000  C
  C17      1.0000 0.23930  0.57780  0.65160  Biso   1.000  C
  C18      1.0000 0.73930  0.42220  0.84840  Biso   1.000  C
  C19      1.0000 0.26070  0.07780  0.34840  Biso   1.000  C
  C20      1.0000 0.76070  0.92220  0.15160  Biso   1.000  C
  C21      1.0000 0.25190  0.59120  0.74350  Biso   1.000  C
  C22      1.0000 0.75190  0.40880  0.75650  Biso   1.000  C
  C23      1.0000 0.24810  0.09120  0.25650  Biso   1.000  C
  C24      1.0000 0.74810  0.90880  0.24350  Biso   1.000  C
  C25      1.0000 0.45270  0.65040  0.88080  Biso   1.000  C
  C26      1.0000 0.95270  0.34960  0.61920  Biso   1.000  C
  C27      1.0000 0.04730  0.15040  0.11920  Biso   1.000  C
  C28      1.0000 0.54730  0.84960  0.38080  Biso   1.000  C
  C29      1.0000 0.63030  0.69570  0.91850  Biso   1.000  C
  C30      1.0000 0.13030  0.30430  0.58150  Biso   1.000  C
  C31      1.0000 0.86970  0.19570  0.08150  Biso   1.000  C
  C32      1.0000 0.36970  0.80430  0.41850  Biso   1.000  C
  C33      1.0000 0.58920  0.69480  0.72700  Biso   1.000  C
  C34      1.0000 0.08920  0.30520  0.77300  Biso   1.000  C
  C35      1.0000 0.91080  0.19480  0.27300  Biso   1.000  C
  C36      1.0000 0.41080  0.80520  0.22700  Biso   1.000  C
  C37      1.0000 0.42520  0.64550  0.78310  Biso   1.000  C
  C38      1.0000 0.92520  0.35450  0.71690  Biso   1.000  C
  C39      1.0000 0.07480  0.14550  0.21690  Biso   1.000  C
  C40      1.0000 0.57480  0.85450  0.28310  Biso   1.000  C
  C41      1.0000 0.99570  0.91860  0.58590  Biso   1.000  C
  C42      1.0000 0.49570  0.08140  0.91410  Biso   1.000  C
  C43      1.0000 0.50430  0.41860  0.41410  Biso   1.000  C
  C44      1.0000 0.00430  0.58140  0.08590  Biso   1.000  C
  C45      1.0000 0.20270  0.94980  0.62730  Biso   1.000  C
  C46      1.0000 0.70270  0.05020  0.87270  Biso   1.000  C
  C47      1.0000 0.29730  0.44980  0.37270  Biso   1.000  C
  C48      1.0000 0.79730  0.55020  0.12730  Biso   1.000  C
  C49      1.0000 0.24790  0.92250  0.71620  Biso   1.000  C
  C50      1.0000 0.74790  0.07750  0.78380  Biso   1.000  C
  C51      1.0000 0.25210  0.42250  0.28380  Biso   1.000  C
  C52      1.0000 0.75210  0.57750  0.21620  Biso   1.000  C
  C53      1.0000 0.13520  0.84570  0.85930  Biso   1.000  C
  C54      1.0000 0.63520  0.15430  0.64070  Biso   1.000  C
  C55      1.0000 0.36480  0.34570  0.14070  Biso   1.000  C
  C56      1.0000 0.86480  0.65430  0.35930  Biso   1.000  C
  C57      1.0000 0.97850  0.79540  0.90740  Biso   1.000  C
  C58      1.0000 0.47850  0.20460  0.59260  Biso   1.000  C
  C59      1.0000 0.52150  0.29540  0.09260  Biso   1.000  C
  C60      1.0000 0.02150  0.70460  0.40740  Biso   1.000  C
  C61      1.0000 0.90230  0.82240  0.71940  Biso   1.000  C
  C62      1.0000 0.40230  0.17760  0.78060  Biso   1.000  C
  C63      1.0000 0.59770  0.32240  0.28060  Biso   1.000  C
  C64      1.0000 0.09770  0.67760  0.21940  Biso   1.000  C
  C65      1.0000 0.09800  0.86320  0.76350  Biso   1.000  C
  C66      1.0000 0.59800  0.13680  0.73650  Biso   1.000  C
  C67      1.0000 0.40200  0.36320  0.23650  Biso   1.000  C
  C68      1.0000 0.90200  0.63680  0.26350  Biso   1.000  C
  C69      1.0000 0.75830  0.75560  0.76870  Biso   1.000  C
  C70      1.0000 0.25830  0.24440  0.73130  Biso   1.000  C
  C71      1.0000 0.74170  0.25560  0.23130  Biso   1.000  C
  C72      1.0000 0.24170  0.74440  0.26870  Biso   1.000  C
