data_image0
_cell_length_a       5.61
_cell_length_b       8.11
_cell_length_c       17.91
_cell_angle_alpha    95.8
_cell_angle_beta     90
_cell_angle_gamma    90

_symmetry_space_group_name_H-M    "P 1"
_symmetry_int_tables_number       1

loop_
  _symmetry_equiv_pos_as_xyz
  'x, y, z'

loop_
  _atom_site_label
  _atom_site_occupancy
  _atom_site_fract_x
  _atom_site_fract_y
  _atom_site_fract_z
  _atom_site_thermal_displace_type
  _atom_site_B_iso_or_equiv
  _atom_site_type_symbol
  H1       1.0000 0.01051  0.22109  0.51592  Biso   1.000  H
  H2       1.0000 0.51051  0.27891  0.48408  Biso   1.000  H
  H3       1.0000 0.98949  0.77891  0.48408  Biso   1.000  H
  H4       1.0000 0.48949  0.72109  0.51592  Biso   1.000  H
  H5       1.0000 0.32420  0.34027  0.60606  Biso   1.000  H
  H6       1.0000 0.82420  0.15973  0.39394  Biso   1.000  H
  H7       1.0000 0.67580  0.65973  0.39394  Biso   1.000  H
  H8       1.0000 0.17580  0.84027  0.60606  Biso   1.000  H
  H9       1.0000 0.32142  0.27712  0.73620  Biso   1.000  H
  H10      1.0000 0.82142  0.22288  0.26380  Biso   1.000  H
  H11      1.0000 0.67858  0.72288  0.26380  Biso   1.000  H
  H12      1.0000 0.17858  0.77712  0.73620  Biso   1.000  H
  H13      1.0000 0.67619  0.88273  0.92832  Biso   1.000  H
  H14      1.0000 0.17619  0.61727  0.07168  Biso   1.000  H
  H15      1.0000 0.32381  0.11727  0.07168  Biso   1.000  H
  H16      1.0000 0.82381  0.38273  0.92832  Biso   1.000  H
  H17      1.0000 0.67323  0.94469  0.79939  Biso   1.000  H
  H18      1.0000 0.17323  0.55531  0.20061  Biso   1.000  H
  H19      1.0000 0.32677  0.05531  0.20061  Biso   1.000  H
  H20      1.0000 0.82677  0.44469  0.79939  Biso   1.000  H
  H21      1.0000 0.32624  0.22429  0.83724  Biso   1.000  H
  H22      1.0000 0.82624  0.27571  0.16276  Biso   1.000  H
  H23      1.0000 0.67376  0.77571  0.16276  Biso   1.000  H
  H24      1.0000 0.17376  0.72429  0.83724  Biso   1.000  H
  H25      1.0000 0.32714  0.16401  0.96636  Biso   1.000  H
  H26      1.0000 0.82714  0.33599  0.03364  Biso   1.000  H
  H27      1.0000 0.67286  0.83599  0.03364  Biso   1.000  H
  H28      1.0000 0.17286  0.66401  0.96636  Biso   1.000  H
  H29      1.0000 0.67699  0.98887  0.69447  Biso   1.000  H
  H30      1.0000 0.17699  0.51113  0.30553  Biso   1.000  H
  H31      1.0000 0.32301  0.01113  0.30553  Biso   1.000  H
  H32      1.0000 0.82301  0.48887  0.69447  Biso   1.000  H
  H33      1.0000 0.68563  0.04879  0.56362  Biso   1.000  H
  H34      1.0000 0.18563  0.45121  0.43638  Biso   1.000  H
  H35      1.0000 0.31437  0.95121  0.43638  Biso   1.000  H
  H36      1.0000 0.81437  0.54879  0.56362  Biso   1.000  H
  C1       1.0000 0.00025  0.02032  0.96000  Biso   1.000  C
  C2       1.0000 0.50025  0.47968  0.04000  Biso   1.000  C
  C3       1.0000 0.99975  0.97968  0.04000  Biso   1.000  C
  C4       1.0000 0.49975  0.52032  0.96000  Biso   1.000  C
  C5       1.0000 0.00718  0.19623  0.57455  Biso   1.000  C
  C6       1.0000 0.50718  0.30377  0.42545  Biso   1.000  C
  C7       1.0000 0.99282  0.80377  0.42545  Biso   1.000  C
  C8       1.0000 0.49282  0.69623  0.57455  Biso   1.000  C
  C9       1.0000 0.18228  0.26237  0.62459  Biso   1.000  C
  C10      1.0000 0.68228  0.23763  0.37541  Biso   1.000  C
  C11      1.0000 0.81772  0.73763  0.37541  Biso   1.000  C
  C12      1.0000 0.31772  0.76237  0.62459  Biso   1.000  C
  C13      1.0000 0.17969  0.22547  0.69967  Biso   1.000  C
  C14      1.0000 0.67969  0.27453  0.30033  Biso   1.000  C
  C15      1.0000 0.82031  0.77453  0.30033  Biso   1.000  C
  C16      1.0000 0.32031  0.72547  0.69967  Biso   1.000  C
  C17      1.0000 0.82001  0.95883  0.90993  Biso   1.000  C
  C18      1.0000 0.32001  0.54117  0.09007  Biso   1.000  C
  C19      1.0000 0.17999  0.04117  0.09007  Biso   1.000  C
  C20      1.0000 0.67999  0.45883  0.90993  Biso   1.000  C
  C21      1.0000 0.81879  0.99441  0.83487  Biso   1.000  C
  C22      1.0000 0.31879  0.50559  0.16513  Biso   1.000  C
  C23      1.0000 0.18121  0.00559  0.16513  Biso   1.000  C
  C24      1.0000 0.68121  0.49441  0.83487  Biso   1.000  C
  C25      1.0000 0.99748  0.09063  0.80658  Biso   1.000  C
  C26      1.0000 0.49748  0.40937  0.19342  Biso   1.000  C
  C27      1.0000 0.00252  0.90937  0.19342  Biso   1.000  C
  C28      1.0000 0.50252  0.59063  0.80658  Biso   1.000  C
  C29      1.0000 0.18048  0.15008  0.85562  Biso   1.000  C
  C30      1.0000 0.68048  0.34992  0.14438  Biso   1.000  C
  C31      1.0000 0.81952  0.84992  0.14438  Biso   1.000  C
  C32      1.0000 0.31952  0.65008  0.85562  Biso   1.000  C
  C33      1.0000 0.18049  0.11511  0.93109  Biso   1.000  C
  C34      1.0000 0.68049  0.38489  0.06891  Biso   1.000  C
  C35      1.0000 0.81951  0.88489  0.06891  Biso   1.000  C
  C36      1.0000 0.31951  0.61511  0.93109  Biso   1.000  C
  C37      1.0000 0.99973  0.12802  0.72705  Biso   1.000  C
  C38      1.0000 0.49973  0.37198  0.27295  Biso   1.000  C
  C39      1.0000 0.00027  0.87198  0.27295  Biso   1.000  C
  C40      1.0000 0.50027  0.62802  0.72705  Biso   1.000  C
  C41      1.0000 0.82130  0.06523  0.67662  Biso   1.000  C
  C42      1.0000 0.32130  0.43477  0.32338  Biso   1.000  C
  C43      1.0000 0.17870  0.93477  0.32338  Biso   1.000  C
  C44      1.0000 0.67870  0.56523  0.67662  Biso   1.000  C
  C45      1.0000 0.82527  0.10040  0.60133  Biso   1.000  C
  C46      1.0000 0.32527  0.39960  0.39867  Biso   1.000  C
  C47      1.0000 0.17473  0.89960  0.39867  Biso   1.000  C
  C48      1.0000 0.67473  0.60040  0.60133  Biso   1.000  C
