data_image0
_cell_length_a       5.613
_cell_length_b       8.106
_cell_length_c       13.613
_cell_angle_alpha    92.02
_cell_angle_beta     90
_cell_angle_gamma    90

_symmetry_space_group_name_H-M    "P 1"
_symmetry_int_tables_number       1

loop_
  _symmetry_equiv_pos_as_xyz
  'x, y, z'

loop_
  _atom_site_label
  _atom_site_occupancy
  _atom_site_fract_x
  _atom_site_fract_y
  _atom_site_fract_z
  _atom_site_thermal_displace_type
  _atom_site_B_iso_or_equiv
  _atom_site_type_symbol
  H1       1.0000 0.67953  0.90238  0.89205  Biso   1.000  H
  H2       1.0000 0.32047  0.09762  0.10795  Biso   1.000  H
  H3       1.0000 0.17953  0.59762  0.10795  Biso   1.000  H
  H4       1.0000 0.82047  0.40238  0.89205  Biso   1.000  H
  H5       1.0000 0.68078  0.82493  0.05783  Biso   1.000  H
  H6       1.0000 0.31922  0.17507  0.94217  Biso   1.000  H
  H7       1.0000 0.18078  0.67507  0.94217  Biso   1.000  H
  H8       1.0000 0.81922  0.32493  0.05783  Biso   1.000  H
  H9       1.0000 0.68101  0.96123  0.75461  Biso   1.000  H
  H10      1.0000 0.31899  0.03877  0.24539  Biso   1.000  H
  H11      1.0000 0.18101  0.53877  0.24539  Biso   1.000  H
  H12      1.0000 0.81899  0.46123  0.75461  Biso   1.000  H
  H13      1.0000 0.68639  0.03951  0.58297  Biso   1.000  H
  H14      1.0000 0.31361  0.96049  0.41703  Biso   1.000  H
  H15      1.0000 0.18639  0.46049  0.41703  Biso   1.000  H
  H16      1.0000 0.81361  0.53951  0.58297  Biso   1.000  H
  H17      1.0000 0.00990  0.21749  0.52151  Biso   1.000  H
  H18      1.0000 0.99010  0.78251  0.47849  Biso   1.000  H
  H19      1.0000 0.50990  0.28251  0.47849  Biso   1.000  H
  H20      1.0000 0.49010  0.71749  0.52151  Biso   1.000  H
  H21      1.0000 0.32039  0.32265  0.63701  Biso   1.000  H
  H22      1.0000 0.67961  0.67735  0.36299  Biso   1.000  H
  H23      1.0000 0.82039  0.17735  0.36299  Biso   1.000  H
  H24      1.0000 0.17961  0.82265  0.63701  Biso   1.000  H
  H25      1.0000 0.31884  0.24505  0.80752  Biso   1.000  H
  H26      1.0000 0.68116  0.75495  0.19248  Biso   1.000  H
  H27      1.0000 0.81884  0.25495  0.19248  Biso   1.000  H
  H28      1.0000 0.18116  0.74505  0.80752  Biso   1.000  H
  C1       1.0000 0.82610  0.94810  0.93770  Biso   1.000  C
  C2       1.0000 0.17390  0.05190  0.06230  Biso   1.000  C
  C3       1.0000 0.32610  0.55190  0.06230  Biso   1.000  C
  C4       1.0000 0.67390  0.44810  0.93770  Biso   1.000  C
  C5       1.0000 0.99990  0.04660  0.90020  Biso   1.000  C
  C6       1.0000 0.00010  0.95340  0.09980  Biso   1.000  C
  C7       1.0000 0.49990  0.45340  0.09980  Biso   1.000  C
  C8       1.0000 0.50010  0.54660  0.90020  Biso   1.000  C
  C9       1.0000 0.82710  0.90300  0.03500  Biso   1.000  C
  C10      1.0000 0.17290  0.09700  0.96500  Biso   1.000  C
  C11      1.0000 0.32710  0.59700  0.96500  Biso   1.000  C
  C12      1.0000 0.67290  0.40300  0.03500  Biso   1.000  C
  C13      1.0000 0.00230  0.09530  0.79530  Biso   1.000  C
  C14      1.0000 0.99770  0.90470  0.20470  Biso   1.000  C
  C15      1.0000 0.50230  0.40470  0.20470  Biso   1.000  C
  C16      1.0000 0.49770  0.59530  0.79530  Biso   1.000  C
  C17      1.0000 0.82440  0.04040  0.73050  Biso   1.000  C
  C18      1.0000 0.17560  0.95960  0.26950  Biso   1.000  C
  C19      1.0000 0.32440  0.45960  0.26950  Biso   1.000  C
  C20      1.0000 0.67560  0.54040  0.73050  Biso   1.000  C
  C21      1.0000 0.82660  0.08540  0.63210  Biso   1.000  C
  C22      1.0000 0.17340  0.91460  0.36790  Biso   1.000  C
  C23      1.0000 0.32660  0.41460  0.36790  Biso   1.000  C
  C24      1.0000 0.67340  0.58540  0.63210  Biso   1.000  C
  C25      1.0000 0.00600  0.18420  0.59840  Biso   1.000  C
  C26      1.0000 0.99400  0.81580  0.40160  Biso   1.000  C
  C27      1.0000 0.50600  0.31580  0.40160  Biso   1.000  C
  C28      1.0000 0.49400  0.68420  0.59840  Biso   1.000  C
  C29      1.0000 0.17940  0.24190  0.66210  Biso   1.000  C
  C30      1.0000 0.82060  0.75810  0.33790  Biso   1.000  C
  C31      1.0000 0.67940  0.25810  0.33790  Biso   1.000  C
  C32      1.0000 0.32060  0.74190  0.66210  Biso   1.000  C
  C33      1.0000 0.17740  0.19790  0.75970  Biso   1.000  C
  C34      1.0000 0.82260  0.80210  0.24030  Biso   1.000  C
  C35      1.0000 0.67740  0.30210  0.24030  Biso   1.000  C
  C36      1.0000 0.32260  0.69790  0.75970  Biso   1.000  C
