data_image0
_cell_length_a       3.86
_cell_length_b       24.613
_cell_length_c       25.895
_cell_angle_alpha    95.85
_cell_angle_beta     90
_cell_angle_gamma    90

_symmetry_space_group_name_H-M    "P 1"
_symmetry_int_tables_number       1

loop_
  _symmetry_equiv_pos_as_xyz
  'x, y, z'

loop_
  _atom_site_label
  _atom_site_occupancy
  _atom_site_fract_x
  _atom_site_fract_y
  _atom_site_fract_z
  _atom_site_thermal_displace_type
  _atom_site_B_iso_or_equiv
  _atom_site_type_symbol
  H1       1.0000 0.16127  0.58784  0.32234  Biso   1.000  H
  H2       1.0000 0.83873  0.41216  0.67766  Biso   1.000  H
  H3       1.0000 0.66127  0.91216  0.17766  Biso   1.000  H
  H4       1.0000 0.33873  0.08784  0.82234  Biso   1.000  H
  H5       1.0000 0.16262  0.61391  0.23472  Biso   1.000  H
  H6       1.0000 0.83738  0.38609  0.76528  Biso   1.000  H
  H7       1.0000 0.66262  0.88609  0.26528  Biso   1.000  H
  H8       1.0000 0.33738  0.11391  0.73472  Biso   1.000  H
  H9       1.0000 0.96892  0.54883  0.15943  Biso   1.000  H
  H10      1.0000 0.03108  0.45117  0.84057  Biso   1.000  H
  H11      1.0000 0.46892  0.95117  0.34057  Biso   1.000  H
  H12      1.0000 0.53108  0.04883  0.65943  Biso   1.000  H
  H13      1.0000 0.49754  0.37096  0.14316  Biso   1.000  H
  H14      1.0000 0.50246  0.62904  0.85684  Biso   1.000  H
  H15      1.0000 0.99754  0.12904  0.35684  Biso   1.000  H
  H16      1.0000 0.00246  0.87096  0.64316  Biso   1.000  H
  H17      1.0000 0.72576  0.46128  0.12883  Biso   1.000  H
  H18      1.0000 0.27424  0.53872  0.87117  Biso   1.000  H
  H19      1.0000 0.22576  0.03872  0.37117  Biso   1.000  H
  H20      1.0000 0.77424  0.96128  0.62883  Biso   1.000  H
  H21      1.0000 0.35642  0.30299  0.20366  Biso   1.000  H
  H22      1.0000 0.64358  0.69701  0.79634  Biso   1.000  H
  H23      1.0000 0.85642  0.19701  0.29634  Biso   1.000  H
  H24      1.0000 0.14358  0.80299  0.70366  Biso   1.000  H
  H25      1.0000 0.33399  0.27463  0.29263  Biso   1.000  H
  H26      1.0000 0.66601  0.72537  0.70737  Biso   1.000  H
  H27      1.0000 0.83399  0.22537  0.20737  Biso   1.000  H
  H28      1.0000 0.16601  0.77463  0.79263  Biso   1.000  H
  H29      1.0000 0.53315  0.33730  0.36644  Biso   1.000  H
  H30      1.0000 0.46685  0.66270  0.63356  Biso   1.000  H
  H31      1.0000 0.03315  0.16270  0.13356  Biso   1.000  H
  H32      1.0000 0.96685  0.83730  0.86644  Biso   1.000  H
  H33      1.0000 0.18658  0.56433  0.39117  Biso   1.000  H
  H34      1.0000 0.81342  0.43567  0.60883  Biso   1.000  H
  H35      1.0000 0.68658  0.93567  0.10883  Biso   1.000  H
  H36      1.0000 0.31342  0.06433  0.89117  Biso   1.000  H
  H37      1.0000 0.63911  0.39163  0.42399  Biso   1.000  H
  H38      1.0000 0.36089  0.60837  0.57601  Biso   1.000  H
  H39      1.0000 0.13911  0.10837  0.07601  Biso   1.000  H
  H40      1.0000 0.86089  0.89163  0.92399  Biso   1.000  H
  H41      1.0000 0.29316  0.58667  0.48289  Biso   1.000  H
  H42      1.0000 0.70684  0.41333  0.51711  Biso   1.000  H
  H43      1.0000 0.79316  0.91333  0.01711  Biso   1.000  H
  H44      1.0000 0.20684  0.08667  0.98289  Biso   1.000  H
  H45      1.0000 0.11151  0.85258  0.33455  Biso   1.000  H
  H46      1.0000 0.88849  0.14742  0.66545  Biso   1.000  H
  H47      1.0000 0.61151  0.64742  0.16545  Biso   1.000  H
  H48      1.0000 0.38849  0.35258  0.83455  Biso   1.000  H
  H49      1.0000 0.18325  0.77220  0.27264  Biso   1.000  H
  H50      1.0000 0.81675  0.22780  0.72736  Biso   1.000  H
  H51      1.0000 0.68325  0.72780  0.22736  Biso   1.000  H
  H52      1.0000 0.31675  0.27220  0.77264  Biso   1.000  H
  H53      1.0000 0.43244  0.68807  0.29862  Biso   1.000  H
  H54      1.0000 0.56756  0.31193  0.70138  Biso   1.000  H
  H55      1.0000 0.93244  0.81193  0.20138  Biso   1.000  H
  H56      1.0000 0.06756  0.18807  0.79862  Biso   1.000  H
  H57      1.0000 0.81446  0.62843  0.46059  Biso   1.000  H
  H58      1.0000 0.18554  0.37157  0.53941  Biso   1.000  H
  H59      1.0000 0.31446  0.87157  0.03941  Biso   1.000  H
  H60      1.0000 0.68554  0.12843  0.96059  Biso   1.000  H
  H61      1.0000 0.67299  0.63490  0.36789  Biso   1.000  H
  H62      1.0000 0.32701  0.36510  0.63211  Biso   1.000  H
  H63      1.0000 0.17299  0.86510  0.13211  Biso   1.000  H
  H64      1.0000 0.82701  0.13490  0.86789  Biso   1.000  H
  H65      1.0000 0.86448  0.67056  0.54707  Biso   1.000  H
  H66      1.0000 0.13552  0.32944  0.45293  Biso   1.000  H
  H67      1.0000 0.36448  0.82944  0.95293  Biso   1.000  H
  H68      1.0000 0.63552  0.17056  0.04707  Biso   1.000  H
  H69      1.0000 0.78229  0.74748  0.61412  Biso   1.000  H
  H70      1.0000 0.21771  0.25252  0.38588  Biso   1.000  H
  H71      1.0000 0.28229  0.75252  0.88588  Biso   1.000  H
  H72      1.0000 0.71771  0.24748  0.11412  Biso   1.000  H
  H73      1.0000 0.53370  0.83548  0.58930  Biso   1.000  H
  H74      1.0000 0.46630  0.16452  0.41070  Biso   1.000  H
  H75      1.0000 0.03370  0.66452  0.91070  Biso   1.000  H
  H76      1.0000 0.96630  0.33548  0.08930  Biso   1.000  H
  H77      1.0000 0.96743  0.90908  0.38914  Biso   1.000  H
  H78      1.0000 0.03257  0.09092  0.61086  Biso   1.000  H
  H79      1.0000 0.46743  0.59092  0.11086  Biso   1.000  H
  H80      1.0000 0.53257  0.40908  0.88914  Biso   1.000  H
  H81      1.0000 0.38035  0.90142  0.56800  Biso   1.000  H
  H82      1.0000 0.61965  0.09858  0.43200  Biso   1.000  H
  H83      1.0000 0.88035  0.59858  0.93200  Biso   1.000  H
  H84      1.0000 0.11965  0.40142  0.06800  Biso   1.000  H
  H85      1.0000 0.78304  0.00350  0.41047  Biso   1.000  H
  H86      1.0000 0.21696  0.99650  0.58953  Biso   1.000  H
  H87      1.0000 0.28304  0.49650  0.08953  Biso   1.000  H
  H88      1.0000 0.71696  0.50350  0.91047  Biso   1.000  H
  C1       1.0000 0.95800  0.50760  0.30180  Biso   1.000  C
  C2       1.0000 0.04200  0.49240  0.69820  Biso   1.000  C
  C3       1.0000 0.45800  0.99240  0.19820  Biso   1.000  C
  C4       1.0000 0.54200  0.00760  0.80180  Biso   1.000  C
  C5       1.0000 0.07000  0.55820  0.29130  Biso   1.000  C
  C6       1.0000 0.93000  0.44180  0.70870  Biso   1.000  C
  C7       1.0000 0.57000  0.94180  0.20870  Biso   1.000  C
  C8       1.0000 0.43000  0.05820  0.79130  Biso   1.000  C
  C9       1.0000 0.07200  0.57310  0.24110  Biso   1.000  C
  C10      1.0000 0.92800  0.42690  0.75890  Biso   1.000  C
  C11      1.0000 0.57200  0.92690  0.25890  Biso   1.000  C
  C12      1.0000 0.42800  0.07310  0.74110  Biso   1.000  C
  C13      1.0000 0.96600  0.53760  0.19900  Biso   1.000  C
  C14      1.0000 0.03400  0.46240  0.80100  Biso   1.000  C
  C15      1.0000 0.46600  0.96240  0.30100  Biso   1.000  C
  C16      1.0000 0.53400  0.03760  0.69900  Biso   1.000  C
  C17      1.0000 0.84700  0.48700  0.21010  Biso   1.000  C
  C18      1.0000 0.15300  0.51300  0.78990  Biso   1.000  C
  C19      1.0000 0.34700  0.01300  0.28990  Biso   1.000  C
  C20      1.0000 0.65300  0.98700  0.71010  Biso   1.000  C
  C21      1.0000 0.82900  0.47120  0.26060  Biso   1.000  C
  C22      1.0000 0.17100  0.52880  0.73940  Biso   1.000  C
  C23      1.0000 0.32900  0.02880  0.23940  Biso   1.000  C
  C24      1.0000 0.67100  0.97120  0.76060  Biso   1.000  C
  C25      1.0000 0.59400  0.39870  0.17550  Biso   1.000  C
  C26      1.0000 0.40600  0.60130  0.82450  Biso   1.000  C
  C27      1.0000 0.09400  0.10130  0.32450  Biso   1.000  C
  C28      1.0000 0.90600  0.89870  0.67550  Biso   1.000  C
  C29      1.0000 0.71600  0.44850  0.16790  Biso   1.000  C
  C30      1.0000 0.28400  0.55150  0.83210  Biso   1.000  C
  C31      1.0000 0.21600  0.05150  0.33210  Biso   1.000  C
  C32      1.0000 0.78400  0.94850  0.66790  Biso   1.000  C
  C33      1.0000 0.45100  0.33030  0.23650  Biso   1.000  C
  C34      1.0000 0.54900  0.66970  0.76350  Biso   1.000  C
  C35      1.0000 0.95100  0.16970  0.26350  Biso   1.000  C
  C36      1.0000 0.04900  0.83030  0.73650  Biso   1.000  C
  C37      1.0000 0.43500  0.31470  0.28620  Biso   1.000  C
  C38      1.0000 0.56500  0.68530  0.71380  Biso   1.000  C
  C39      1.0000 0.93500  0.18530  0.21380  Biso   1.000  C
  C40      1.0000 0.06500  0.81470  0.78620  Biso   1.000  C
  C41      1.0000 0.54800  0.35040  0.32760  Biso   1.000  C
  C42      1.0000 0.45200  0.64960  0.67240  Biso   1.000  C
  C43      1.0000 0.04800  0.14960  0.17240  Biso   1.000  C
  C44      1.0000 0.95200  0.85040  0.82760  Biso   1.000  C
  C45      1.0000 0.67600  0.40220  0.32140  Biso   1.000  C
  C46      1.0000 0.32400  0.59780  0.67860  Biso   1.000  C
  C47      1.0000 0.17600  0.09780  0.17860  Biso   1.000  C
  C48      1.0000 0.82400  0.90220  0.82140  Biso   1.000  C
  C49      1.0000 0.79200  0.44090  0.36550  Biso   1.000  C
  C50      1.0000 0.20800  0.55910  0.63450  Biso   1.000  C
  C51      1.0000 0.29200  0.05910  0.13450  Biso   1.000  C
  C52      1.0000 0.70800  0.94090  0.86550  Biso   1.000  C
  C53      1.0000 0.93900  0.49270  0.35540  Biso   1.000  C
  C54      1.0000 0.06100  0.50730  0.64460  Biso   1.000  C
  C55      1.0000 0.43900  0.00730  0.14460  Biso   1.000  C
  C56      1.0000 0.56100  0.99270  0.85540  Biso   1.000  C
  C57      1.0000 0.06100  0.52580  0.39710  Biso   1.000  C
  C58      1.0000 0.93900  0.47420  0.60290  Biso   1.000  C
  C59      1.0000 0.56100  0.97420  0.10290  Biso   1.000  C
  C60      1.0000 0.43900  0.02580  0.89710  Biso   1.000  C
  C61      1.0000 0.03200  0.51420  0.45060  Biso   1.000  C
  C62      1.0000 0.96800  0.48580  0.54940  Biso   1.000  C
  C63      1.0000 0.53200  0.98580  0.04940  Biso   1.000  C
  C64      1.0000 0.46800  0.01420  0.95060  Biso   1.000  C
  C65      1.0000 0.88500  0.46290  0.45840  Biso   1.000  C
  C66      1.0000 0.11500  0.53710  0.54160  Biso   1.000  C
  C67      1.0000 0.38500  0.03710  0.04160  Biso   1.000  C
  C68      1.0000 0.61500  0.96290  0.95840  Biso   1.000  C
  C69      1.0000 0.76200  0.42970  0.41570  Biso   1.000  C
  C70      1.0000 0.23800  0.57030  0.58430  Biso   1.000  C
  C71      1.0000 0.26200  0.07030  0.08430  Biso   1.000  C
  C72      1.0000 0.73800  0.92970  0.91570  Biso   1.000  C
  C73      1.0000 0.16400  0.54900  0.49080  Biso   1.000  C
  C74      1.0000 0.83600  0.45100  0.50920  Biso   1.000  C
  C75      1.0000 0.66400  0.95100  0.00920  Biso   1.000  C
  C76      1.0000 0.33600  0.04900  0.99080  Biso   1.000  C
  C77      1.0000 0.70400  0.41870  0.26890  Biso   1.000  C
  C78      1.0000 0.29600  0.58130  0.73110  Biso   1.000  C
  C79      1.0000 0.20400  0.08130  0.23110  Biso   1.000  C
  C80      1.0000 0.79600  0.91870  0.76890  Biso   1.000  C
  C81      1.0000 0.57700  0.38170  0.22720  Biso   1.000  C
  C82      1.0000 0.42300  0.61830  0.77280  Biso   1.000  C
  C83      1.0000 0.07700  0.11830  0.27280  Biso   1.000  C
  C84      1.0000 0.92300  0.88170  0.72720  Biso   1.000  C
  C85      1.0000 0.27100  0.81210  0.40060  Biso   1.000  C
  C86      1.0000 0.72900  0.18790  0.59940  Biso   1.000  C
  C87      1.0000 0.77100  0.68790  0.09940  Biso   1.000  C
  C88      1.0000 0.22900  0.31210  0.90060  Biso   1.000  C
  C89      1.0000 0.20900  0.81510  0.34820  Biso   1.000  C
  C90      1.0000 0.79100  0.18490  0.65180  Biso   1.000  C
  C91      1.0000 0.70900  0.68490  0.15180  Biso   1.000  C
  C92      1.0000 0.29100  0.31510  0.84820  Biso   1.000  C
  C93      1.0000 0.25000  0.76950  0.31320  Biso   1.000  C
  C94      1.0000 0.75000  0.23050  0.68680  Biso   1.000  C
  C95      1.0000 0.75000  0.73050  0.18680  Biso   1.000  C
  C96      1.0000 0.25000  0.26950  0.81320  Biso   1.000  C
  C97      1.0000 0.39000  0.72330  0.32710  Biso   1.000  C
  C98      1.0000 0.61000  0.27670  0.67290  Biso   1.000  C
  C99      1.0000 0.89000  0.77670  0.17290  Biso   1.000  C
  C100     1.0000 0.11000  0.22330  0.82710  Biso   1.000  C
  C101     1.0000 0.48700  0.71840  0.38000  Biso   1.000  C
  C102     1.0000 0.51300  0.28160  0.62000  Biso   1.000  C
  C103     1.0000 0.98700  0.78160  0.12000  Biso   1.000  C
  C104     1.0000 0.01300  0.21840  0.88000  Biso   1.000  C
  C105     1.0000 0.40800  0.76340  0.41690  Biso   1.000  C
  C106     1.0000 0.59200  0.23660  0.58310  Biso   1.000  C
  C107     1.0000 0.90800  0.73660  0.08310  Biso   1.000  C
  C108     1.0000 0.09200  0.26340  0.91690  Biso   1.000  C
  C109     1.0000 0.50800  0.76010  0.47000  Biso   1.000  C
  C110     1.0000 0.49200  0.23990  0.53000  Biso   1.000  C
  C111     1.0000 0.00800  0.73990  0.03000  Biso   1.000  C
  C112     1.0000 0.99200  0.26010  0.97000  Biso   1.000  C
  C113     1.0000 0.64900  0.71140  0.48290  Biso   1.000  C
  C114     1.0000 0.35100  0.28860  0.51710  Biso   1.000  C
  C115     1.0000 0.14900  0.78860  0.01710  Biso   1.000  C
  C116     1.0000 0.85100  0.21140  0.98290  Biso   1.000  C
  C117     1.0000 0.70600  0.66530  0.44730  Biso   1.000  C
  C118     1.0000 0.29400  0.33470  0.55270  Biso   1.000  C
  C119     1.0000 0.20600  0.83470  0.05270  Biso   1.000  C
  C120     1.0000 0.79400  0.16530  0.94730  Biso   1.000  C
  C121     1.0000 0.62700  0.66910  0.39740  Biso   1.000  C
  C122     1.0000 0.37300  0.33090  0.60260  Biso   1.000  C
  C123     1.0000 0.12700  0.83090  0.10260  Biso   1.000  C
  C124     1.0000 0.87300  0.16910  0.89740  Biso   1.000  C
  C125     1.0000 0.74900  0.70880  0.53760  Biso   1.000  C
  C126     1.0000 0.25100  0.29120  0.46240  Biso   1.000  C
  C127     1.0000 0.24900  0.79120  0.96240  Biso   1.000  C
  C128     1.0000 0.75100  0.20880  0.03760  Biso   1.000  C
  C129     1.0000 0.70500  0.75050  0.57400  Biso   1.000  C
  C130     1.0000 0.29500  0.24950  0.42600  Biso   1.000  C
  C131     1.0000 0.20500  0.74950  0.92600  Biso   1.000  C
  C132     1.0000 0.79500  0.25050  0.07400  Biso   1.000  C
  C133     1.0000 0.56500  0.80120  0.55990  Biso   1.000  C
  C134     1.0000 0.43500  0.19880  0.44010  Biso   1.000  C
  C135     1.0000 0.06500  0.69880  0.94010  Biso   1.000  C
  C136     1.0000 0.93500  0.30120  0.05990  Biso   1.000  C
  C137     1.0000 0.47900  0.80440  0.50820  Biso   1.000  C
  C138     1.0000 0.52100  0.19560  0.49180  Biso   1.000  C
  C139     1.0000 0.97900  0.69560  0.99180  Biso   1.000  C
  C140     1.0000 0.02100  0.30440  0.00820  Biso   1.000  C
  C141     1.0000 0.33300  0.85690  0.49430  Biso   1.000  C
  C142     1.0000 0.66700  0.14310  0.50570  Biso   1.000  C
  C143     1.0000 0.83300  0.64310  0.00570  Biso   1.000  C
  C144     1.0000 0.16700  0.35690  0.99430  Biso   1.000  C
  C145     1.0000 0.21800  0.85900  0.44010  Biso   1.000  C
  C146     1.0000 0.78200  0.14100  0.55990  Biso   1.000  C
  C147     1.0000 0.71800  0.64100  0.05990  Biso   1.000  C
  C148     1.0000 0.28200  0.35900  0.94010  Biso   1.000  C
  C149     1.0000 0.06900  0.90640  0.42810  Biso   1.000  C
  C150     1.0000 0.93100  0.09360  0.57190  Biso   1.000  C
  C151     1.0000 0.56900  0.59360  0.07190  Biso   1.000  C
  C152     1.0000 0.43100  0.40640  0.92810  Biso   1.000  C
  C153     1.0000 0.03000  0.95410  0.46380  Biso   1.000  C
  C154     1.0000 0.97000  0.04590  0.53620  Biso   1.000  C
  C155     1.0000 0.53000  0.54590  0.03620  Biso   1.000  C
  C156     1.0000 0.47000  0.45410  0.96380  Biso   1.000  C
  C157     1.0000 0.16000  0.95240  0.51530  Biso   1.000  C
  C158     1.0000 0.84000  0.04760  0.48470  Biso   1.000  C
  C159     1.0000 0.66000  0.54760  0.98470  Biso   1.000  C
  C160     1.0000 0.34000  0.45240  0.01530  Biso   1.000  C
  C161     1.0000 0.29500  0.90180  0.52790  Biso   1.000  C
  C162     1.0000 0.70500  0.09820  0.47210  Biso   1.000  C
  C163     1.0000 0.79500  0.59820  0.97210  Biso   1.000  C
  C164     1.0000 0.20500  0.40180  0.02790  Biso   1.000  C
  C165     1.0000 0.88000  0.00290  0.45000  Biso   1.000  C
  C166     1.0000 0.12000  0.99710  0.55000  Biso   1.000  C
  C167     1.0000 0.38000  0.49710  0.05000  Biso   1.000  C
  C168     1.0000 0.62000  0.50290  0.95000  Biso   1.000  C
