data_image0
_cell_length_a       10.136
_cell_length_b       14.851
_cell_length_c       18.425
_cell_angle_alpha    96.55
_cell_angle_beta     90
_cell_angle_gamma    90

_symmetry_space_group_name_H-M    "P 1"
_symmetry_int_tables_number       1

loop_
  _symmetry_equiv_pos_as_xyz
  'x, y, z'

loop_
  _atom_site_label
  _atom_site_occupancy
  _atom_site_fract_x
  _atom_site_fract_y
  _atom_site_fract_z
  _atom_site_thermal_displace_type
  _atom_site_B_iso_or_equiv
  _atom_site_type_symbol
  H1       1.0000 0.01079  0.63418  0.07784  Biso   1.000  H
  H2       1.0000 0.98921  0.36582  0.92216  Biso   1.000  H
  H3       1.0000 0.51079  0.86582  0.42216  Biso   1.000  H
  H4       1.0000 0.48921  0.13418  0.57784  Biso   1.000  H
  H5       1.0000 0.87123  0.74411  0.14804  Biso   1.000  H
  H6       1.0000 0.12877  0.25589  0.85196  Biso   1.000  H
  H7       1.0000 0.37123  0.75589  0.35196  Biso   1.000  H
  H8       1.0000 0.62877  0.24411  0.64804  Biso   1.000  H
  H9       1.0000 0.88701  0.90808  0.13273  Biso   1.000  H
  H10      1.0000 0.11299  0.09192  0.86727  Biso   1.000  H
  H11      1.0000 0.38701  0.59192  0.36727  Biso   1.000  H
  H12      1.0000 0.61299  0.40808  0.63273  Biso   1.000  H
  H13      1.0000 0.05008  0.95936  0.04851  Biso   1.000  H
  H14      1.0000 0.94992  0.04064  0.95149  Biso   1.000  H
  H15      1.0000 0.55008  0.54064  0.45149  Biso   1.000  H
  H16      1.0000 0.44992  0.45936  0.54851  Biso   1.000  H
  H17      1.0000 0.22515  0.99692  0.01375  Biso   1.000  H
  H18      1.0000 0.77485  0.00308  0.98625  Biso   1.000  H
  H19      1.0000 0.72515  0.50308  0.48625  Biso   1.000  H
  H20      1.0000 0.27485  0.49692  0.51375  Biso   1.000  H
  H21      1.0000 0.39826  0.04704  0.93557  Biso   1.000  H
  H22      1.0000 0.60174  0.95296  0.06443  Biso   1.000  H
  H23      1.0000 0.89826  0.45296  0.56443  Biso   1.000  H
  H24      1.0000 0.10174  0.54704  0.43557  Biso   1.000  H
  H25      1.0000 0.51112  0.93354  0.84590  Biso   1.000  H
  H26      1.0000 0.48888  0.06646  0.15410  Biso   1.000  H
  H27      1.0000 0.01112  0.56646  0.65410  Biso   1.000  H
  H28      1.0000 0.98888  0.43354  0.34590  Biso   1.000  H
  H29      1.0000 0.44067  0.77676  0.83116  Biso   1.000  H
  H30      1.0000 0.55933  0.22324  0.16884  Biso   1.000  H
  H31      1.0000 0.94067  0.72324  0.66884  Biso   1.000  H
  H32      1.0000 0.05933  0.27676  0.33116  Biso   1.000  H
  H33      1.0000 0.15982  0.54698  0.72701  Biso   1.000  H
  H34      1.0000 0.84018  0.45302  0.27299  Biso   1.000  H
  H35      1.0000 0.65982  0.95302  0.77299  Biso   1.000  H
  H36      1.0000 0.34018  0.04698  0.22701  Biso   1.000  H
  H37      1.0000 0.12971  0.42426  0.62754  Biso   1.000  H
  H38      1.0000 0.87029  0.57574  0.37246  Biso   1.000  H
  H39      1.0000 0.62971  0.07574  0.87246  Biso   1.000  H
  H40      1.0000 0.37029  0.92426  0.12754  Biso   1.000  H
  H41      1.0000 0.21446  0.27055  0.64202  Biso   1.000  H
  H42      1.0000 0.78554  0.72945  0.35798  Biso   1.000  H
  H43      1.0000 0.71447  0.22945  0.85798  Biso   1.000  H
  H44      1.0000 0.28553  0.77055  0.14202  Biso   1.000  H
  H45      1.0000 0.31480  0.23932  0.75562  Biso   1.000  H
  H46      1.0000 0.68520  0.76068  0.24438  Biso   1.000  H
  H47      1.0000 0.81480  0.26068  0.74438  Biso   1.000  H
  H48      1.0000 0.18520  0.73932  0.25562  Biso   1.000  H
  H49      1.0000 0.42207  0.22420  0.84201  Biso   1.000  H
  H50      1.0000 0.57793  0.77580  0.15799  Biso   1.000  H
  H51      1.0000 0.92207  0.27580  0.65799  Biso   1.000  H
  H52      1.0000 0.07793  0.72420  0.34201  Biso   1.000  H
  H53      1.0000 0.50352  0.19212  0.96207  Biso   1.000  H
  H54      1.0000 0.49648  0.80788  0.03793  Biso   1.000  H
  H55      1.0000 0.00352  0.30788  0.53793  Biso   1.000  H
  H56      1.0000 0.99648  0.69212  0.46207  Biso   1.000  H
  H57      1.0000 0.48941  0.31128  0.06722  Biso   1.000  H
  H58      1.0000 0.51059  0.68872  0.93278  Biso   1.000  H
  H59      1.0000 0.98941  0.18872  0.43278  Biso   1.000  H
  H60      1.0000 0.01059  0.81128  0.56722  Biso   1.000  H
  H61      1.0000 0.38801  0.45611  0.05489  Biso   1.000  H
  H62      1.0000 0.61199  0.54389  0.94511  Biso   1.000  H
  H63      1.0000 0.88801  0.04389  0.44511  Biso   1.000  H
  H64      1.0000 0.11199  0.95611  0.55489  Biso   1.000  H
  H65      1.0000 0.35959  0.63904  0.10907  Biso   1.000  H
  H66      1.0000 0.64041  0.36096  0.89093  Biso   1.000  H
  H67      1.0000 0.85959  0.86096  0.39093  Biso   1.000  H
  H68      1.0000 0.14041  0.13904  0.60907  Biso   1.000  H
  H69      1.0000 0.34302  0.59247  0.23283  Biso   1.000  H
  H70      1.0000 0.65698  0.40753  0.76717  Biso   1.000  H
  H71      1.0000 0.84302  0.90753  0.26717  Biso   1.000  H
  H72      1.0000 0.15698  0.09247  0.73283  Biso   1.000  H
  H73      1.0000 0.18100  0.47362  0.25784  Biso   1.000  H
  H74      1.0000 0.81900  0.52638  0.74216  Biso   1.000  H
  H75      1.0000 0.68100  0.02638  0.24216  Biso   1.000  H
  H76      1.0000 0.31900  0.97362  0.75784  Biso   1.000  H
  H77      1.0000 0.03965  0.40224  0.15748  Biso   1.000  H
  H78      1.0000 0.96035  0.59776  0.84252  Biso   1.000  H
  H79      1.0000 0.53965  0.09776  0.34252  Biso   1.000  H
  H80      1.0000 0.46035  0.90224  0.65748  Biso   1.000  H
  H81      1.0000 0.05999  0.44783  0.03375  Biso   1.000  H
  H82      1.0000 0.94001  0.55217  0.96625  Biso   1.000  H
  H83      1.0000 0.55999  0.05217  0.46625  Biso   1.000  H
  H84      1.0000 0.44001  0.94783  0.53375  Biso   1.000  H
  H85      1.0000 0.49026  0.57881  0.76703  Biso   1.000  H
  H86      1.0000 0.50974  0.42119  0.23297  Biso   1.000  H
  H87      1.0000 0.99026  0.92119  0.73297  Biso   1.000  H
  H88      1.0000 0.00974  0.07881  0.26703  Biso   1.000  H
  H89      1.0000 0.54236  0.61425  0.64249  Biso   1.000  H
  H90      1.0000 0.45764  0.38575  0.35751  Biso   1.000  H
  H91      1.0000 0.04236  0.88575  0.85751  Biso   1.000  H
  H92      1.0000 0.95764  0.11425  0.14249  Biso   1.000  H
  H93      1.0000 0.39302  0.71383  0.58027  Biso   1.000  H
  H94      1.0000 0.60698  0.28617  0.41973  Biso   1.000  H
  H95      1.0000 0.89302  0.78617  0.91973  Biso   1.000  H
  H96      1.0000 0.10698  0.21383  0.08027  Biso   1.000  H
  H97      1.0000 0.19495  0.77840  0.64408  Biso   1.000  H
  H98      1.0000 0.80505  0.22160  0.35592  Biso   1.000  H
  H99      1.0000 0.69495  0.72160  0.85592  Biso   1.000  H
  H100     1.0000 0.30505  0.27840  0.14408  Biso   1.000  H
  H101     1.0000 0.14092  0.74166  0.76790  Biso   1.000  H
  H102     1.0000 0.85908  0.25834  0.23210  Biso   1.000  H
  H103     1.0000 0.64092  0.75834  0.73210  Biso   1.000  H
  H104     1.0000 0.35908  0.24166  0.26790  Biso   1.000  H
  C1       1.0000 0.22590  0.57640  0.98860  Biso   1.000  C
  C2       1.0000 0.77410  0.42360  0.01140  Biso   1.000  C
  C3       1.0000 0.72590  0.92360  0.51140  Biso   1.000  C
  C4       1.0000 0.27410  0.07640  0.48860  Biso   1.000  C
  C5       1.0000 0.19990  0.66667  0.97510  Biso   1.000  C
  C6       1.0000 0.80010  0.33333  0.02490  Biso   1.000  C
  C7       1.0000 0.69990  0.83330  0.52490  Biso   1.000  C
  C8       1.0000 0.30010  0.16670  0.47510  Biso   1.000  C
  C9       1.0000 0.25220  0.69660  0.91010  Biso   1.000  C
  C10      1.0000 0.74780  0.30340  0.08990  Biso   1.000  C
  C11      1.0000 0.75220  0.80340  0.58990  Biso   1.000  C
  C12      1.0000 0.24780  0.19660  0.41010  Biso   1.000  C
  C13      1.0000 0.27670  0.63140  0.84980  Biso   1.000  C
  C14      1.0000 0.72330  0.36860  0.15020  Biso   1.000  C
  C15      1.0000 0.77670  0.86860  0.65020  Biso   1.000  C
  C16      1.0000 0.22330  0.13140  0.34980  Biso   1.000  C
  C17      1.0000 0.27160  0.53870  0.85980  Biso   1.000  C
  C18      1.0000 0.72840  0.46130  0.14020  Biso   1.000  C
  C19      1.0000 0.77160  0.96130  0.64020  Biso   1.000  C
  C20      1.0000 0.22840  0.03870  0.35980  Biso   1.000  C
  C21      1.0000 0.27510  0.51350  0.93160  Biso   1.000  C
  C22      1.0000 0.72490  0.48650  0.06840  Biso   1.000  C
  C23      1.0000 0.77510  0.98650  0.56840  Biso   1.000  C
  C24      1.0000 0.22490  0.01350  0.43160  Biso   1.000  C
  C25      1.0000 0.11980  0.73240  0.02270  Biso   1.000  C
  C26      1.0000 0.88020  0.26760  0.97730  Biso   1.000  C
  C27      1.0000 0.61980  0.76760  0.47730  Biso   1.000  C
  C28      1.0000 0.38020  0.23240  0.52270  Biso   1.000  C
  C29      1.0000 0.02390  0.70530  0.07130  Biso   1.000  C
  C30      1.0000 0.97610  0.29470  0.92870  Biso   1.000  C
  C31      1.0000 0.52390  0.79470  0.42870  Biso   1.000  C
  C32      1.0000 0.47610  0.20530  0.57130  Biso   1.000  C
  C33      1.0000 0.94310  0.76780  0.11080  Biso   1.000  C
  C34      1.0000 0.05690  0.23220  0.88920  Biso   1.000  C
  C35      1.0000 0.44310  0.73220  0.38920  Biso   1.000  C
  C36      1.0000 0.55690  0.26780  0.61080  Biso   1.000  C
  C37      1.0000 0.95250  0.85890  0.10260  Biso   1.000  C
  C38      1.0000 0.04750  0.14110  0.89740  Biso   1.000  C
  C39      1.0000 0.45250  0.64110  0.39740  Biso   1.000  C
  C40      1.0000 0.54750  0.35890  0.60260  Biso   1.000  C
  C41      1.0000 0.04410  0.88760  0.05520  Biso   1.000  C
  C42      1.0000 0.95590  0.11240  0.94480  Biso   1.000  C
  C43      1.0000 0.54410  0.61240  0.44480  Biso   1.000  C
  C44      1.0000 0.45590  0.38760  0.55520  Biso   1.000  C
  C45      1.0000 0.12850  0.82590  0.01510  Biso   1.000  C
  C46      1.0000 0.87150  0.17410  0.98490  Biso   1.000  C
  C47      1.0000 0.62850  0.67410  0.48490  Biso   1.000  C
  C48      1.0000 0.37150  0.32590  0.51510  Biso   1.000  C
  C49      1.0000 0.22830  0.85690  0.96620  Biso   1.000  C
  C50      1.0000 0.77170  0.14310  0.03380  Biso   1.000  C
  C51      1.0000 0.72830  0.64310  0.53380  Biso   1.000  C
  C52      1.0000 0.27170  0.35690  0.46620  Biso   1.000  C
  C53      1.0000 0.26950  0.94800  0.97230  Biso   1.000  C
  C54      1.0000 0.73050  0.05200  0.02770  Biso   1.000  C
  C55      1.0000 0.76950  0.55200  0.52770  Biso   1.000  C
  C56      1.0000 0.23050  0.44800  0.47230  Biso   1.000  C
  C57      1.0000 0.36740  0.97630  0.92890  Biso   1.000  C
  C58      1.0000 0.63260  0.02370  0.07110  Biso   1.000  C
  C59      1.0000 0.86740  0.52370  0.57110  Biso   1.000  C
  C60      1.0000 0.13260  0.47630  0.42890  Biso   1.000  C
  C61      1.0000 0.42920  0.91340  0.87860  Biso   1.000  C
  C62      1.0000 0.57080  0.08660  0.12140  Biso   1.000  C
  C63      1.0000 0.92920  0.58660  0.62140  Biso   1.000  C
  C64      1.0000 0.07080  0.41340  0.37860  Biso   1.000  C
  C65      1.0000 0.38910  0.82450  0.87020  Biso   1.000  C
  C66      1.0000 0.61090  0.17550  0.12980  Biso   1.000  C
  C67      1.0000 0.88910  0.67550  0.62980  Biso   1.000  C
  C68      1.0000 0.11090  0.32450  0.37020  Biso   1.000  C
  C69      1.0000 0.28620  0.79390  0.91280  Biso   1.000  C
  C70      1.0000 0.71380  0.20610  0.08720  Biso   1.000  C
  C71      1.0000 0.78620  0.70610  0.58720  Biso   1.000  C
  C72      1.0000 0.21380  0.29390  0.41280  Biso   1.000  C
  C73      1.0000 0.25990  0.46530  0.79890  Biso   1.000  C
  C74      1.0000 0.74010  0.53470  0.20110  Biso   1.000  C
  C75      1.0000 0.75990  0.03470  0.70110  Biso   1.000  C
  C76      1.0000 0.24010  0.96530  0.29890  Biso   1.000  C
  C77      1.0000 0.19690  0.47980  0.73330  Biso   1.000  C
  C78      1.0000 0.80310  0.52020  0.26670  Biso   1.000  C
  C79      1.0000 0.69690  0.02020  0.76670  Biso   1.000  C
  C80      1.0000 0.30310  0.97980  0.23330  Biso   1.000  C
  C81      1.0000 0.17870  0.41110  0.67790  Biso   1.000  C
  C82      1.0000 0.82130  0.58890  0.32210  Biso   1.000  C
  C83      1.0000 0.67870  0.08890  0.82210  Biso   1.000  C
  C84      1.0000 0.32130  0.91110  0.17790  Biso   1.000  C
  C85      1.0000 0.22490  0.32500  0.68630  Biso   1.000  C
  C86      1.0000 0.77510  0.67500  0.31370  Biso   1.000  C
  C87      1.0000 0.72490  0.17500  0.81370  Biso   1.000  C
  C88      1.0000 0.27510  0.82500  0.18630  Biso   1.000  C
  C89      1.0000 0.28220  0.30800  0.75000  Biso   1.000  C
  C90      1.0000 0.71780  0.69200  0.25000  Biso   1.000  C
  C91      1.0000 0.78220  0.19200  0.75000  Biso   1.000  C
  C92      1.0000 0.21780  0.80800  0.25000  Biso   1.000  C
  C93      1.0000 0.29800  0.37700  0.80870  Biso   1.000  C
  C94      1.0000 0.70200  0.62300  0.19130  Biso   1.000  C
  C95      1.0000 0.79800  0.12300  0.69130  Biso   1.000  C
  C96      1.0000 0.20200  0.87700  0.30870  Biso   1.000  C
  C97      1.0000 0.34900  0.35850  0.87990  Biso   1.000  C
  C98      1.0000 0.65100  0.64150  0.12010  Biso   1.000  C
  C99      1.0000 0.84900  0.14150  0.62010  Biso   1.000  C
  C100     1.0000 0.15100  0.85850  0.37990  Biso   1.000  C
  C101     1.0000 0.40950  0.27480  0.88910  Biso   1.000  C
  C102     1.0000 0.59050  0.72520  0.11090  Biso   1.000  C
  C103     1.0000 0.90950  0.22520  0.61090  Biso   1.000  C
  C104     1.0000 0.09050  0.77480  0.38910  Biso   1.000  C
  C105     1.0000 0.45580  0.25660  0.95590  Biso   1.000  C
  C106     1.0000 0.54420  0.74340  0.04410  Biso   1.000  C
  C107     1.0000 0.95580  0.24340  0.54410  Biso   1.000  C
  C108     1.0000 0.04420  0.75660  0.45590  Biso   1.000  C
  C109     1.0000 0.44740  0.32280  0.01480  Biso   1.000  C
  C110     1.0000 0.55260  0.67720  0.98520  Biso   1.000  C
  C111     1.0000 0.94740  0.17720  0.48520  Biso   1.000  C
  C112     1.0000 0.05260  0.82280  0.51480  Biso   1.000  C
  C113     1.0000 0.38780  0.40500  0.00810  Biso   1.000  C
  C114     1.0000 0.61220  0.59500  0.99190  Biso   1.000  C
  C115     1.0000 0.88780  0.09500  0.49190  Biso   1.000  C
  C116     1.0000 0.11220  0.90500  0.50810  Biso   1.000  C
  C117     1.0000 0.33380  0.42380  0.94090  Biso   1.000  C
  C118     1.0000 0.66620  0.57620  0.05910  Biso   1.000  C
  C119     1.0000 0.83380  0.07620  0.55910  Biso   1.000  C
  C120     1.0000 0.16620  0.92380  0.44090  Biso   1.000  C
  C121     1.0000 0.20740  0.54910  0.06390  Biso   1.000  C
  C122     1.0000 0.79260  0.45090  0.93610  Biso   1.000  C
  C123     1.0000 0.70740  0.95090  0.43610  Biso   1.000  C
  C124     1.0000 0.29260  0.04910  0.56390  Biso   1.000  C
  C125     1.0000 0.28650  0.58890  0.12050  Biso   1.000  C
  C126     1.0000 0.71350  0.41110  0.87950  Biso   1.000  C
  C127     1.0000 0.78650  0.91110  0.37950  Biso   1.000  C
  C128     1.0000 0.21350  0.08890  0.62050  Biso   1.000  C
  C129     1.0000 0.27790  0.56170  0.18980  Biso   1.000  C
  C130     1.0000 0.72210  0.43830  0.81020  Biso   1.000  C
  C131     1.0000 0.77790  0.93830  0.31020  Biso   1.000  C
  C132     1.0000 0.22210  0.06170  0.68980  Biso   1.000  C
  C133     1.0000 0.18840  0.49550  0.20350  Biso   1.000  C
  C134     1.0000 0.81160  0.50450  0.79650  Biso   1.000  C
  C135     1.0000 0.68840  0.00450  0.29650  Biso   1.000  C
  C136     1.0000 0.31160  0.99550  0.70350  Biso   1.000  C
  C137     1.0000 0.10960  0.45510  0.14730  Biso   1.000  C
  C138     1.0000 0.89040  0.54490  0.85270  Biso   1.000  C
  C139     1.0000 0.60960  0.04490  0.35270  Biso   1.000  C
  C140     1.0000 0.39040  0.95510  0.64730  Biso   1.000  C
  C141     1.0000 0.12000  0.48130  0.07780  Biso   1.000  C
  C142     1.0000 0.88000  0.51870  0.92220  Biso   1.000  C
  C143     1.0000 0.62000  0.01870  0.42220  Biso   1.000  C
  C144     1.0000 0.38000  0.98130  0.57780  Biso   1.000  C
  C145     1.0000 0.31100  0.65730  0.77600  Biso   1.000  C
  C146     1.0000 0.68900  0.34270  0.22400  Biso   1.000  C
  C147     1.0000 0.81100  0.84270  0.72400  Biso   1.000  C
  C148     1.0000 0.18900  0.15730  0.27600  Biso   1.000  C
  C149     1.0000 0.42470  0.62260  0.73980  Biso   1.000  C
  C150     1.0000 0.57530  0.37740  0.26020  Biso   1.000  C
  C151     1.0000 0.92470  0.87740  0.76020  Biso   1.000  C
  C152     1.0000 0.07530  0.12260  0.23980  Biso   1.000  C
  C153     1.0000 0.45380  0.64230  0.67000  Biso   1.000  C
  C154     1.0000 0.54620  0.35770  0.33000  Biso   1.000  C
  C155     1.0000 0.95380  0.85770  0.83000  Biso   1.000  C
  C156     1.0000 0.04620  0.14230  0.17000  Biso   1.000  C
  C157     1.0000 0.37040  0.69810  0.63530  Biso   1.000  C
  C158     1.0000 0.62960  0.30190  0.36470  Biso   1.000  C
  C159     1.0000 0.87040  0.80190  0.86470  Biso   1.000  C
  C160     1.0000 0.12960  0.19810  0.13530  Biso   1.000  C
  C161     1.0000 0.25960  0.73380  0.67090  Biso   1.000  C
  C162     1.0000 0.74040  0.26620  0.32910  Biso   1.000  C
  C163     1.0000 0.75960  0.76620  0.82910  Biso   1.000  C
  C164     1.0000 0.24040  0.23380  0.17090  Biso   1.000  C
  C165     1.0000 0.22980  0.71380  0.74060  Biso   1.000  C
  C166     1.0000 0.77020  0.28620  0.25940  Biso   1.000  C
  C167     1.0000 0.72980  0.78620  0.75940  Biso   1.000  C
  C168     1.0000 0.27020  0.21380  0.24060  Biso   1.000  C
