data_image0
_cell_length_a       6.1995
_cell_length_b       11.0201
_cell_length_c       14.7
_cell_angle_alpha    95.66
_cell_angle_beta     96.6
_cell_angle_gamma    104.52

_symmetry_space_group_name_H-M    "P 1"
_symmetry_int_tables_number       1

loop_
  _symmetry_equiv_pos_as_xyz
  'x, y, z'

loop_
  _atom_site_label
  _atom_site_occupancy
  _atom_site_fract_x
  _atom_site_fract_y
  _atom_site_fract_z
  _atom_site_thermal_displace_type
  _atom_site_B_iso_or_equiv
  _atom_site_type_symbol
  H1       1.0000 0.38668  0.64894  0.69540  Biso   1.000  H
  H2       1.0000 0.61332  0.35106  0.30460  Biso   1.000  H
  H3       1.0000 0.29656  0.71313  0.36796  Biso   1.000  H
  H4       1.0000 0.70344  0.28687  0.63204  Biso   1.000  H
  H5       1.0000 0.17315  0.89633  0.14025  Biso   1.000  H
  H6       1.0000 0.82685  0.10367  0.85975  Biso   1.000  H
  H7       1.0000 0.52377  0.06898  0.15967  Biso   1.000  H
  H8       1.0000 0.47623  0.93102  0.84033  Biso   1.000  H
  H9       1.0000 0.88137  0.03727  0.23371  Biso   1.000  H
  H10      1.0000 0.11863  0.96273  0.76629  Biso   1.000  H
  H11      1.0000 0.88933  0.83137  0.28418  Biso   1.000  H
  H12      1.0000 0.11067  0.16863  0.71582  Biso   1.000  H
  H13      1.0000 0.54262  0.65924  0.26396  Biso   1.000  H
  H14      1.0000 0.45738  0.34076  0.73604  Biso   1.000  H
  H15      1.0000 0.05280  0.67102  0.04410  Biso   1.000  H
  H16      1.0000 0.94720  0.32898  0.95590  Biso   1.000  H
  H17      1.0000 0.29756  0.49671  0.98507  Biso   1.000  H
  H18      1.0000 0.70244  0.50329  0.01493  Biso   1.000  H
  H19      1.0000 0.39492  0.73316  0.98453  Biso   1.000  H
  H20      1.0000 0.60508  0.26684  0.01547  Biso   1.000  H
  H21      1.0000 0.75327  0.89511  0.03040  Biso   1.000  H
  H22      1.0000 0.24673  0.10489  0.96960  Biso   1.000  H
  H23      1.0000 0.07036  0.89827  0.94146  Biso   1.000  H
  H24      1.0000 0.92964  0.10173  0.05854  Biso   1.000  H
  H25      1.0000 0.02630  0.73438  0.80886  Biso   1.000  H
  H26      1.0000 0.97370  0.26562  0.19114  Biso   1.000  H
  H27      1.0000 0.67228  0.56937  0.76395  Biso   1.000  H
  H28      1.0000 0.32772  0.43063  0.23605  Biso   1.000  H
  H29      1.0000 0.59756  0.61024  0.46323  Biso   1.000  H
  H30      1.0000 0.40244  0.38976  0.53677  Biso   1.000  H
  H31      1.0000 0.94184  0.78907  0.49031  Biso   1.000  H
  H32      1.0000 0.05816  0.21093  0.50969  Biso   1.000  H
  H33      1.0000 0.94149  0.99150  0.57967  Biso   1.000  H
  H34      1.0000 0.05851  0.00850  0.42033  Biso   1.000  H
  H35      1.0000 0.59608  0.01762  0.63530  Biso   1.000  H
  H36      1.0000 0.40392  0.98238  0.36470  Biso   1.000  H
  H37      1.0000 0.25624  0.84028  0.61145  Biso   1.000  H
  H38      1.0000 0.74376  0.15972  0.38855  Biso   1.000  H
  C1       1.0000 0.19620  0.60480  0.51873  Biso   1.000  C
  C2       1.0000 0.80380  0.39520  0.48127  Biso   1.000  C
  C3       1.0000 0.07830  0.56710  0.42780  Biso   1.000  C
  C4       1.0000 0.92170  0.43290  0.57220  Biso   1.000  C
  C5       1.0000 0.11810  0.53880  0.59109  Biso   1.000  C
  C6       1.0000 0.88190  0.46120  0.40891  Biso   1.000  C
  C7       1.0000 0.23570  0.57050  0.68222  Biso   1.000  C
  C8       1.0000 0.76430  0.42950  0.31778  Biso   1.000  C
  C9       1.0000 0.16530  0.50580  0.75434  Biso   1.000  C
  C10      1.0000 0.83470  0.49420  0.24566  Biso   1.000  C
  C11      1.0000 0.03810  0.59670  0.26366  Biso   1.000  C
  C12      1.0000 0.96190  0.40330  0.73634  Biso   1.000  C
  C13      1.0000 0.14950  0.63240  0.35356  Biso   1.000  C
  C14      1.0000 0.85050  0.36760  0.64644  Biso   1.000  C
  C15      1.0000 0.11910  0.66130  0.18804  Biso   1.000  C
  C16      1.0000 0.88090  0.33870  0.81196  Biso   1.000  C
  C17      1.0000 0.33190  0.76480  0.20202  Biso   1.000  C
  C18      1.0000 0.66810  0.23520  0.79798  Biso   1.000  C
  C19      1.0000 0.33110  0.88110  0.17120  Biso   1.000  C
  C20      1.0000 0.66890  0.11890  0.82880  Biso   1.000  C
  C21      1.0000 0.52900  0.97840  0.18240  Biso   1.000  C
  C22      1.0000 0.47100  0.02160  0.81760  Biso   1.000  C
  C23      1.0000 0.72680  0.96060  0.22370  Biso   1.000  C
  C24      1.0000 0.27320  0.03940  0.77630  Biso   1.000  C
  C25      1.0000 0.73250  0.84690  0.25260  Biso   1.000  C
  C26      1.0000 0.26750  0.15310  0.74740  Biso   1.000  C
  C27      1.0000 0.53490  0.74950  0.24140  Biso   1.000  C
  C28      1.0000 0.46510  0.25050  0.75860  Biso   1.000  C
  C29      1.0000 0.99520  0.62440  0.10218  Biso   1.000  C
  C30      1.0000 0.00480  0.37560  0.89782  Biso   1.000  C
  C31      1.0000 0.20680  0.47390  0.91495  Biso   1.000  C
  C32      1.0000 0.79320  0.52610  0.08505  Biso   1.000  C
  C33      1.0000 0.29020  0.53870  0.84683  Biso   1.000  C
  C34      1.0000 0.70980  0.46130  0.15317  Biso   1.000  C
  C35      1.0000 0.50480  0.64020  0.86979  Biso   1.000  C
  C36      1.0000 0.49520  0.35980  0.13021  Biso   1.000  C
  C37      1.0000 0.53310  0.73280  0.94500  Biso   1.000  C
  C38      1.0000 0.46690  0.26720  0.05500  Biso   1.000  C
  C39      1.0000 0.73610  0.82520  0.97040  Biso   1.000  C
  C40      1.0000 0.26390  0.17480  0.02960  Biso   1.000  C
  C41      1.0000 0.91050  0.82650  0.92110  Biso   1.000  C
  C42      1.0000 0.08950  0.17350  0.07890  Biso   1.000  C
  C43      1.0000 0.88660  0.73550  0.84740  Biso   1.000  C
  C44      1.0000 0.11340  0.26450  0.15260  Biso   1.000  C
  C45      1.0000 0.68530  0.64230  0.82150  Biso   1.000  C
  C46      1.0000 0.31470  0.35770  0.17850  Biso   1.000  C
  C47      1.0000 0.40430  0.71320  0.53683  Biso   1.000  C
  C48      1.0000 0.59570  0.28680  0.46317  Biso   1.000  C
  C49      1.0000 0.59720  0.69960  0.50210  Biso   1.000  C
  C50      1.0000 0.40280  0.30040  0.49790  Biso   1.000  C
  C51      1.0000 0.79110  0.80030  0.51760  Biso   1.000  C
  C52      1.0000 0.20890  0.19970  0.48240  Biso   1.000  C
  C53      1.0000 0.78920  0.91330  0.56760  Biso   1.000  C
  C54      1.0000 0.21080  0.08670  0.43240  Biso   1.000  C
  C55      1.0000 0.59990  0.92770  0.59830  Biso   1.000  C
  C56      1.0000 0.40010  0.07230  0.40170  Biso   1.000  C
  C57      1.0000 0.40700  0.82760  0.58470  Biso   1.000  C
  C58      1.0000 0.59300  0.17240  0.41530  Biso   1.000  C
