data_image0
_cell_length_a       7.09411
_cell_length_b       7.09411
_cell_length_c       9.032
_cell_angle_alpha    90
_cell_angle_beta     90
_cell_angle_gamma    100.053

_symmetry_space_group_name_H-M    "P 1"
_symmetry_int_tables_number       1

loop_
  _symmetry_equiv_pos_as_xyz
  'x, y, z'

loop_
  _atom_site_label
  _atom_site_occupancy
  _atom_site_fract_x
  _atom_site_fract_y
  _atom_site_fract_z
  _atom_site_thermal_displace_type
  _atom_site_B_iso_or_equiv
  _atom_site_type_symbol
  C1       1.0000 0.31105  0.18725  0.31255  Biso   1.000  C
  C2       1.0000 0.68895  0.81275  0.68745  Biso   1.000  C
  C3       1.0000 0.18895  0.31275  0.81255  Biso   1.000  C
  C4       1.0000 0.81105  0.68725  0.18745  Biso   1.000  C
  C5       1.0000 0.68725  0.81105  0.18745  Biso   1.000  C
  C6       1.0000 0.31275  0.18895  0.81255  Biso   1.000  C
  C7       1.0000 0.81275  0.68895  0.68745  Biso   1.000  C
  C8       1.0000 0.18725  0.31105  0.31255  Biso   1.000  C
  C9       1.0000 0.23395  0.01715  0.40525  Biso   1.000  C
  C10      1.0000 0.76605  0.98285  0.59475  Biso   1.000  C
  C11      1.0000 0.26605  0.48285  0.90525  Biso   1.000  C
  C12      1.0000 0.73395  0.51715  0.09475  Biso   1.000  C
  C13      1.0000 0.51715  0.73395  0.09475  Biso   1.000  C
  C14      1.0000 0.48285  0.26605  0.90525  Biso   1.000  C
  C15      1.0000 0.98285  0.76605  0.59475  Biso   1.000  C
  C16      1.0000 0.01715  0.23395  0.40525  Biso   1.000  C
  C17      1.0000 0.28040  0.84596  0.45190  Biso   1.000  C
  C18      1.0000 0.71960  0.15404  0.54810  Biso   1.000  C
  C19      1.0000 0.21960  0.65404  0.95190  Biso   1.000  C
  C20      1.0000 0.78040  0.34596  0.04810  Biso   1.000  C
  C21      1.0000 0.34596  0.78040  0.04810  Biso   1.000  C
  C22      1.0000 0.65404  0.21960  0.95190  Biso   1.000  C
  C23      1.0000 0.15404  0.71960  0.54810  Biso   1.000  C
  C24      1.0000 0.84596  0.28040  0.45190  Biso   1.000  C
  C25      1.0000 0.05980  0.05980  0.45490  Biso   1.000  C
  C26      1.0000 0.94020  0.94020  0.54510  Biso   1.000  C
  C27      1.0000 0.44020  0.44020  0.95490  Biso   1.000  C
  C28      1.0000 0.55980  0.55980  0.04510  Biso   1.000  C
  H1       1.0000 0.44759  0.20937  0.25477  Biso   1.000  H
  H2       1.0000 0.55241  0.79063  0.74523  Biso   1.000  H
  H3       1.0000 0.05241  0.29063  0.75477  Biso   1.000  H
  H4       1.0000 0.94759  0.70937  0.24523  Biso   1.000  H
  H5       1.0000 0.70937  0.94759  0.24523  Biso   1.000  H
  H6       1.0000 0.29063  0.05241  0.75477  Biso   1.000  H
  H7       1.0000 0.79063  0.55241  0.74523  Biso   1.000  H
  H8       1.0000 0.20937  0.44759  0.25477  Biso   1.000  H
  H9       1.0000 0.41314  0.80060  0.41851  Biso   1.000  H
  H10      1.0000 0.58686  0.19940  0.58149  Biso   1.000  H
  H11      1.0000 0.08686  0.69940  0.91851  Biso   1.000  H
  H12      1.0000 0.91314  0.30060  0.08149  Biso   1.000  H
  H13      1.0000 0.30060  0.91314  0.08149  Biso   1.000  H
  H14      1.0000 0.69940  0.08686  0.91851  Biso   1.000  H
  H15      1.0000 0.19940  0.58686  0.58149  Biso   1.000  H
  H16      1.0000 0.80060  0.41314  0.41851  Biso   1.000  H
