data_image0
_cell_length_a       3.7818
_cell_length_b       21.663
_cell_length_c       26.1806
_cell_angle_alpha    98.9528
_cell_angle_beta     90
_cell_angle_gamma    90

_symmetry_space_group_name_H-M    "P 1"
_symmetry_int_tables_number       1

loop_
  _symmetry_equiv_pos_as_xyz
  'x, y, z'

loop_
  _atom_site_label
  _atom_site_occupancy
  _atom_site_fract_x
  _atom_site_fract_y
  _atom_site_fract_z
  _atom_site_thermal_displace_type
  _atom_site_B_iso_or_equiv
  _atom_site_type_symbol
  H1       1.0000 0.96568  0.58401  0.91289  Biso   1.000  H
  H2       1.0000 0.53432  0.08401  0.41289  Biso   1.000  H
  H3       1.0000 0.75691  0.50489  0.96616  Biso   1.000  H
  H4       1.0000 0.74309  0.00489  0.46616  Biso   1.000  H
  H5       1.0000 0.51670  0.54027  0.05485  Biso   1.000  H
  H6       1.0000 0.98330  0.04027  0.55485  Biso   1.000  H
  H7       1.0000 0.37424  0.62223  0.12398  Biso   1.000  H
  H8       1.0000 0.12576  0.12223  0.62398  Biso   1.000  H
  H9       1.0000 0.19824  0.70988  0.19766  Biso   1.000  H
  H10      1.0000 0.30176  0.20988  0.69766  Biso   1.000  H
  H11      1.0000 0.16894  0.82321  0.22975  Biso   1.000  H
  H12      1.0000 0.33106  0.32321  0.72975  Biso   1.000  H
  H13      1.0000 0.59813  0.86079  0.26886  Biso   1.000  H
  H14      1.0000 0.90187  0.36079  0.76886  Biso   1.000  H
  H15      1.0000 0.45049  0.89995  0.36063  Biso   1.000  H
  H16      1.0000 0.04951  0.39995  0.86063  Biso   1.000  H
  H17      1.0000 0.18902  0.00626  0.38517  Biso   1.000  H
  H18      1.0000 0.31098  0.50626  0.88517  Biso   1.000  H
  H19      1.0000 0.02512  0.10476  0.36308  Biso   1.000  H
  H20      1.0000 0.47488  0.60476  0.86308  Biso   1.000  H
  H21      1.0000 0.96344  0.17565  0.29869  Biso   1.000  H
  H22      1.0000 0.53656  0.67565  0.79869  Biso   1.000  H
  H23      1.0000 0.05823  0.19636  0.20745  Biso   1.000  H
  H24      1.0000 0.44177  0.69636  0.70745  Biso   1.000  H
  H25      1.0000 0.31170  0.16307  0.12094  Biso   1.000  H
  H26      1.0000 0.18830  0.66307  0.62094  Biso   1.000  H
  H27      1.0000 0.53942  0.08253  0.05517  Biso   1.000  H
  H28      1.0000 0.96058  0.58253  0.55517  Biso   1.000  H
  H29      1.0000 0.70019  0.97232  0.02512  Biso   1.000  H
  H30      1.0000 0.79981  0.47232  0.52512  Biso   1.000  H
  H31      1.0000 0.85881  0.88756  0.00609  Biso   1.000  H
  H32      1.0000 0.64119  0.38756  0.50609  Biso   1.000  H
  H33      1.0000 0.05865  0.80395  0.93995  Biso   1.000  H
  H34      1.0000 0.44135  0.30395  0.43995  Biso   1.000  H
  H35      1.0000 0.08065  0.69225  0.90311  Biso   1.000  H
  H36      1.0000 0.41935  0.19225  0.40311  Biso   1.000  H
  H37      1.0000 0.47312  0.86709  0.56160  Biso   1.000  H
  H38      1.0000 0.02688  0.36709  0.06160  Biso   1.000  H
  H39      1.0000 0.24885  0.94497  0.51064  Biso   1.000  H
  H40      1.0000 0.25115  0.44497  0.01064  Biso   1.000  H
  H41      1.0000 0.98772  0.91068  0.42392  Biso   1.000  H
  H42      1.0000 0.51228  0.41068  0.92392  Biso   1.000  H
  H43      1.0000 0.85356  0.82138  0.34962  Biso   1.000  H
  H44      1.0000 0.64644  0.32138  0.84962  Biso   1.000  H
  H45      1.0000 0.65994  0.73970  0.28714  Biso   1.000  H
  H46      1.0000 0.84006  0.23970  0.78714  Biso   1.000  H
  H47      1.0000 0.64186  0.62972  0.25001  Biso   1.000  H
  H48      1.0000 0.85814  0.12972  0.75001  Biso   1.000  H
  H49      1.0000 0.07798  0.58764  0.20959  Biso   1.000  H
  H50      1.0000 0.42202  0.08764  0.70959  Biso   1.000  H
  H51      1.0000 0.94685  0.54668  0.11885  Biso   1.000  H
  H52      1.0000 0.55315  0.04668  0.61885  Biso   1.000  H
  H53      1.0000 0.66204  0.44363  0.09469  Biso   1.000  H
  H54      1.0000 0.83796  0.94363  0.59469  Biso   1.000  H
  H55      1.0000 0.46141  0.34261  0.11981  Biso   1.000  H
  H56      1.0000 0.03859  0.84261  0.61981  Biso   1.000  H
  H57      1.0000 0.44383  0.27177  0.18524  Biso   1.000  H
  H58      1.0000 0.05617  0.77177  0.68524  Biso   1.000  H
  H59      1.0000 0.56912  0.25069  0.27060  Biso   1.000  H
  H60      1.0000 0.93088  0.75069  0.77060  Biso   1.000  H
  H61      1.0000 0.77282  0.28480  0.36090  Biso   1.000  H
  H62      1.0000 0.72718  0.78480  0.86090  Biso   1.000  H
  H63      1.0000 0.01708  0.36813  0.42717  Biso   1.000  H
  H64      1.0000 0.48292  0.86813  0.92717  Biso   1.000  H
  H65      1.0000 0.19650  0.47651  0.45423  Biso   1.000  H
  H66      1.0000 0.30350  0.97651  0.95423  Biso   1.000  H
  H67      1.0000 0.40173  0.56191  0.47180  Biso   1.000  H
  H68      1.0000 0.09827  0.06191  0.97180  Biso   1.000  H
  H69      1.0000 0.56512  0.64463  0.53979  Biso   1.000  H
  H70      1.0000 0.93488  0.14463  0.03979  Biso   1.000  H
  H71      1.0000 0.59100  0.75805  0.57286  Biso   1.000  H
  H72      1.0000 0.90900  0.25805  0.07286  Biso   1.000  H
  C1       1.0000 0.85600  0.66290  0.97190  Biso   1.000  C
  C2       1.0000 0.64400  0.16290  0.47190  Biso   1.000  C
  C3       1.0000 0.86620  0.59880  0.95180  Biso   1.000  C
  C4       1.0000 0.63380  0.09880  0.45180  Biso   1.000  C
  C5       1.0000 0.74760  0.55450  0.98180  Biso   1.000  C
  C6       1.0000 0.75240  0.05450  0.48180  Biso   1.000  C
  C7       1.0000 0.61900  0.57420  0.03200  Biso   1.000  C
  C8       1.0000 0.88100  0.07420  0.53200  Biso   1.000  C
  C9       1.0000 0.60860  0.63810  0.05240  Biso   1.000  C
  C10      1.0000 0.89140  0.13810  0.55240  Biso   1.000  C
  C11      1.0000 0.46430  0.65800  0.10190  Biso   1.000  C
  C12      1.0000 0.03570  0.15800  0.60190  Biso   1.000  C
  C13      1.0000 0.43810  0.72130  0.12450  Biso   1.000  C
  C14      1.0000 0.06190  0.22130  0.62450  Biso   1.000  C
  C15      1.0000 0.30530  0.74300  0.17430  Biso   1.000  C
  C16      1.0000 0.19470  0.24300  0.67430  Biso   1.000  C
  C17      1.0000 0.29390  0.80720  0.19280  Biso   1.000  C
  C18      1.0000 0.20610  0.30720  0.69280  Biso   1.000  C
  C19      1.0000 0.41650  0.85060  0.16180  Biso   1.000  C
  C20      1.0000 0.08350  0.35060  0.66180  Biso   1.000  C
  C21      1.0000 0.42450  0.91580  0.18470  Biso   1.000  C
  C22      1.0000 0.07550  0.41580  0.68470  Biso   1.000  C
  C23      1.0000 0.40970  0.94370  0.24070  Biso   1.000  C
  C24      1.0000 0.09030  0.44370  0.74070  Biso   1.000  C
  C25      1.0000 0.47270  0.90610  0.27900  Biso   1.000  C
  C26      1.0000 0.02730  0.40610  0.77900  Biso   1.000  C
  C27      1.0000 0.39520  0.92870  0.33100  Biso   1.000  C
  C28      1.0000 0.10480  0.42870  0.83100  Biso   1.000  C
  C29      1.0000 0.25440  0.98890  0.34500  Biso   1.000  C
  C30      1.0000 0.24560  0.48890  0.84500  Biso   1.000  C
  C31      1.0000 0.19440  0.02700  0.30710  Biso   1.000  C
  C32      1.0000 0.30560  0.52700  0.80710  Biso   1.000  C
  C33      1.0000 0.08860  0.08880  0.32260  Biso   1.000  C
  C34      1.0000 0.41140  0.58880  0.82260  Biso   1.000  C
  C35      1.0000 0.05010  0.12750  0.28680  Biso   1.000  C
  C36      1.0000 0.44990  0.62750  0.78680  Biso   1.000  C
  C37      1.0000 0.14900  0.10920  0.23450  Biso   1.000  C
  C38      1.0000 0.35100  0.60920  0.73450  Biso   1.000  C
  C39      1.0000 0.15410  0.14850  0.19690  Biso   1.000  C
  C40      1.0000 0.34590  0.64850  0.69690  Biso   1.000  C
  C41      1.0000 0.29740  0.13040  0.14860  Biso   1.000  C
  C42      1.0000 0.20260  0.63040  0.64860  Biso   1.000  C
  C43      1.0000 0.41070  0.06770  0.13290  Biso   1.000  C
  C44      1.0000 0.08930  0.56770  0.63290  Biso   1.000  C
  C45      1.0000 0.52710  0.04880  0.08190  Biso   1.000  C
  C46      1.0000 0.97290  0.54880  0.58190  Biso   1.000  C
  C47      1.0000 0.61500  0.98610  0.06490  Biso   1.000  C
  C48      1.0000 0.88500  0.48610  0.56490  Biso   1.000  C
  C49      1.0000 0.58730  0.94170  0.09870  Biso   1.000  C
  C50      1.0000 0.91270  0.44170  0.59870  Biso   1.000  C
  C51      1.0000 0.65360  0.87610  0.08080  Biso   1.000  C
  C52      1.0000 0.84640  0.37610  0.58080  Biso   1.000  C
  C53      1.0000 0.77460  0.85440  0.03100  Biso   1.000  C
  C54      1.0000 0.72540  0.35440  0.53100  Biso   1.000  C
  C55      1.0000 0.83190  0.79180  0.01320  Biso   1.000  C
  C56      1.0000 0.66810  0.29180  0.51320  Biso   1.000  C
  C57      1.0000 0.96330  0.76900  0.96250  Biso   1.000  C
  C58      1.0000 0.53670  0.26900  0.46250  Biso   1.000  C
  C59      1.0000 0.97770  0.70740  0.94190  Biso   1.000  C
  C60      1.0000 0.52230  0.20740  0.44190  Biso   1.000  C
  C61      1.0000 0.72760  0.68270  0.02230  Biso   1.000  C
  C62      1.0000 0.77240  0.18270  0.52230  Biso   1.000  C
  C63      1.0000 0.70210  0.74650  0.04280  Biso   1.000  C
  C64      1.0000 0.79790  0.24650  0.54280  Biso   1.000  C
  C65      1.0000 0.55770  0.76450  0.09320  Biso   1.000  C
  C66      1.0000 0.94230  0.26450  0.59320  Biso   1.000  C
  C67      1.0000 0.54530  0.82900  0.11170  Biso   1.000  C
  C68      1.0000 0.95470  0.32900  0.61170  Biso   1.000  C
  C69      1.0000 0.47190  0.96060  0.14990  Biso   1.000  C
  C70      1.0000 0.02810  0.46060  0.64990  Biso   1.000  C
  C71      1.0000 0.38420  0.02350  0.16700  Biso   1.000  C
  C72      1.0000 0.11580  0.52350  0.66700  Biso   1.000  C
  C73      1.0000 0.25320  0.04600  0.21810  Biso   1.000  C
  C74      1.0000 0.24680  0.54600  0.71810  Biso   1.000  C
  C75      1.0000 0.27270  0.00440  0.25490  Biso   1.000  C
  C76      1.0000 0.22730  0.50440  0.75490  Biso   1.000  C
  C77      1.0000 0.35610  0.78900  0.50510  Biso   1.000  C
  C78      1.0000 0.14390  0.28900  0.00510  Biso   1.000  C
  C79      1.0000 0.36190  0.85120  0.52340  Biso   1.000  C
  C80      1.0000 0.13810  0.35120  0.02340  Biso   1.000  C
  C81      1.0000 0.23490  0.89550  0.49460  Biso   1.000  C
  C82      1.0000 0.26510  0.39550  0.99460  Biso   1.000  C
  C83      1.0000 0.09350  0.87670  0.44650  Biso   1.000  C
  C84      1.0000 0.40650  0.37670  0.94650  Biso   1.000  C
  C85      1.0000 0.08210  0.81250  0.42520  Biso   1.000  C
  C86      1.0000 0.41790  0.31250  0.92520  Biso   1.000  C
  C87      1.0000 0.95570  0.78910  0.37400  Biso   1.000  C
  C88      1.0000 0.54430  0.28910  0.87400  Biso   1.000  C
  C89      1.0000 0.94740  0.72640  0.35710  Biso   1.000  C
  C90      1.0000 0.55260  0.22640  0.85710  Biso   1.000  C
  C91      1.0000 0.78590  0.70510  0.30730  Biso   1.000  C
  C92      1.0000 0.71410  0.20510  0.80730  Biso   1.000  C
  C93      1.0000 0.77860  0.64420  0.28640  Biso   1.000  C
  C94      1.0000 0.72140  0.14420  0.78640  Biso   1.000  C
  C95      1.0000 0.92560  0.59600  0.31340  Biso   1.000  C
  C96      1.0000 0.57440  0.09600  0.81340  Biso   1.000  C
  C97      1.0000 0.92550  0.53140  0.29450  Biso   1.000  C
  C98      1.0000 0.57450  0.03140  0.79450  Biso   1.000  C
  C99      1.0000 0.86570  0.50830  0.23950  Biso   1.000  C
  C100     1.0000 0.63430  0.00830  0.73950  Biso   1.000  C
  C101     1.0000 0.94430  0.54290  0.20040  Biso   1.000  C
  C102     1.0000 0.55570  0.04290  0.70040  Biso   1.000  C
  C103     1.0000 0.87520  0.51900  0.14860  Biso   1.000  C
  C104     1.0000 0.62480  0.01900  0.64860  Biso   1.000  C
  C105     1.0000 0.72370  0.46130  0.13500  Biso   1.000  C
  C106     1.0000 0.77630  0.96130  0.63500  Biso   1.000  C
  C107     1.0000 0.65710  0.42320  0.17270  Biso   1.000  C
  C108     1.0000 0.84290  0.92320  0.67270  Biso   1.000  C
  C109     1.0000 0.53610  0.35930  0.15980  Biso   1.000  C
  C110     1.0000 0.96390  0.85930  0.65980  Biso   1.000  C
  C111     1.0000 0.52920  0.32010  0.19570  Biso   1.000  C
  C112     1.0000 0.97080  0.82010  0.69570  Biso   1.000  C
  C113     1.0000 0.63560  0.34170  0.24800  Biso   1.000  C
  C114     1.0000 0.86440  0.84170  0.74800  Biso   1.000  C
  C115     1.0000 0.65600  0.29860  0.28350  Biso   1.000  C
  C116     1.0000 0.84400  0.79860  0.78350  Biso   1.000  C
  C117     1.0000 0.76020  0.31730  0.33310  Biso   1.000  C
  C118     1.0000 0.73980  0.81730  0.83310  Biso   1.000  C
  C119     1.0000 0.87630  0.38090  0.34920  Biso   1.000  C
  C120     1.0000 0.62370  0.88090  0.84920  Biso   1.000  C
  C121     1.0000 0.00160  0.40170  0.40030  Biso   1.000  C
  C122     1.0000 0.49840  0.90170  0.90030  Biso   1.000  C
  C123     1.0000 0.10130  0.46170  0.41500  Biso   1.000  C
  C124     1.0000 0.39870  0.96170  0.91500  Biso   1.000  C
  C125     1.0000 0.07150  0.50710  0.38100  Biso   1.000  C
  C126     1.0000 0.42850  0.00710  0.88100  Biso   1.000  C
  C127     1.0000 0.13880  0.57260  0.39890  Biso   1.000  C
  C128     1.0000 0.36120  0.07260  0.89890  Biso   1.000  C
  C129     1.0000 0.30280  0.59470  0.44770  Biso   1.000  C
  C130     1.0000 0.19720  0.09470  0.94770  Biso   1.000  C
  C131     1.0000 0.31080  0.65860  0.46650  Biso   1.000  C
  C132     1.0000 0.18920  0.15860  0.96650  Biso   1.000  C
  C133     1.0000 0.46880  0.67910  0.51710  Biso   1.000  C
  C134     1.0000 0.03120  0.17910  0.01710  Biso   1.000  C
  C135     1.0000 0.47810  0.74110  0.53480  Biso   1.000  C
  C136     1.0000 0.02190  0.24110  0.03480  Biso   1.000  C
  C137     1.0000 0.21070  0.76810  0.45480  Biso   1.000  C
  C138     1.0000 0.28930  0.26810  0.95480  Biso   1.000  C
  C139     1.0000 0.19900  0.70210  0.43530  Biso   1.000  C
  C140     1.0000 0.30100  0.20210  0.93530  Biso   1.000  C
  C141     1.0000 0.07140  0.67930  0.38590  Biso   1.000  C
  C142     1.0000 0.42860  0.17930  0.88590  Biso   1.000  C
  C143     1.0000 0.05220  0.61460  0.36510  Biso   1.000  C
  C144     1.0000 0.44780  0.11460  0.86510  Biso   1.000  C
  C145     1.0000 0.95650  0.48760  0.32930  Biso   1.000  C
  C146     1.0000 0.54350  0.98760  0.82930  Biso   1.000  C
  C147     1.0000 0.86230  0.42300  0.31350  Biso   1.000  C
  C148     1.0000 0.63770  0.92300  0.81350  Biso   1.000  C
  C149     1.0000 0.75260  0.40360  0.26210  Biso   1.000  C
  C150     1.0000 0.74740  0.90360  0.76210  Biso   1.000  C
  C151     1.0000 0.74060  0.44690  0.22550  Biso   1.000  C
  C152     1.0000 0.75940  0.94690  0.72550  Biso   1.000  C
