data_image0
_cell_length_a       11.7878
_cell_length_b       12.1286
_cell_length_c       20.5581
_cell_angle_alpha    90
_cell_angle_beta     90
_cell_angle_gamma    90

_symmetry_space_group_name_H-M    "P 1"
_symmetry_int_tables_number       1

loop_
  _symmetry_equiv_pos_as_xyz
  'x, y, z'

loop_
  _atom_site_label
  _atom_site_occupancy
  _atom_site_fract_x
  _atom_site_fract_y
  _atom_site_fract_z
  _atom_site_thermal_displace_type
  _atom_site_B_iso_or_equiv
  _atom_site_type_symbol
  H1       1.0000 0.22538  0.80671  0.40277  Biso   1.000  H
  H2       1.0000 0.77462  0.19329  0.90277  Biso   1.000  H
  H3       1.0000 0.27462  0.30671  0.40277  Biso   1.000  H
  H4       1.0000 0.72538  0.69329  0.90277  Biso   1.000  H
  H5       1.0000 0.03027  0.74617  0.42972  Biso   1.000  H
  H6       1.0000 0.96973  0.25383  0.92972  Biso   1.000  H
  H7       1.0000 0.46973  0.24617  0.42972  Biso   1.000  H
  H8       1.0000 0.53027  0.75383  0.92972  Biso   1.000  H
  H9       1.0000 0.97243  0.55334  0.41097  Biso   1.000  H
  H10      1.0000 0.02757  0.44666  0.91097  Biso   1.000  H
  H11      1.0000 0.52757  0.05334  0.41097  Biso   1.000  H
  H12      1.0000 0.47243  0.94666  0.91097  Biso   1.000  H
  H13      1.0000 0.10995  0.42025  0.36514  Biso   1.000  H
  H14      1.0000 0.89005  0.57975  0.86514  Biso   1.000  H
  H15      1.0000 0.39005  0.92025  0.36514  Biso   1.000  H
  H16      1.0000 0.60995  0.07975  0.86514  Biso   1.000  H
  H17      1.0000 0.30511  0.47963  0.33868  Biso   1.000  H
  H18      1.0000 0.69489  0.52037  0.83868  Biso   1.000  H
  H19      1.0000 0.19489  0.97963  0.33868  Biso   1.000  H
  H20      1.0000 0.80511  0.02037  0.83868  Biso   1.000  H
  H21      1.0000 0.28534  0.89456  0.24103  Biso   1.000  H
  H22      1.0000 0.71466  0.10544  0.74103  Biso   1.000  H
  H23      1.0000 0.21466  0.39456  0.24103  Biso   1.000  H
  H24      1.0000 0.78534  0.60544  0.74103  Biso   1.000  H
  H25      1.0000 0.13519  0.87827  0.15627  Biso   1.000  H
  H26      1.0000 0.86481  0.12173  0.65627  Biso   1.000  H
  H27      1.0000 0.36481  0.37827  0.15627  Biso   1.000  H
  H28      1.0000 0.63519  0.62173  0.65627  Biso   1.000  H
  H29      1.0000 0.09678  0.69877  0.10531  Biso   1.000  H
  H30      1.0000 0.90322  0.30123  0.60531  Biso   1.000  H
  H31      1.0000 0.40322  0.19877  0.10531  Biso   1.000  H
  H32      1.0000 0.59678  0.80123  0.60531  Biso   1.000  H
  H33      1.0000 0.20537  0.53379  0.13850  Biso   1.000  H
  H34      1.0000 0.79463  0.46621  0.63850  Biso   1.000  H
  H35      1.0000 0.29463  0.03379  0.13850  Biso   1.000  H
  H36      1.0000 0.70537  0.96621  0.63850  Biso   1.000  H
  H37      1.0000 0.35749  0.55067  0.22085  Biso   1.000  H
  H38      1.0000 0.64251  0.44933  0.72085  Biso   1.000  H
  H39      1.0000 0.14251  0.05067  0.22085  Biso   1.000  H
  H40      1.0000 0.85749  0.94933  0.72085  Biso   1.000  H
  H41      1.0000 0.62074  0.67500  0.16999  Biso   1.000  H
  H42      1.0000 0.37926  0.32500  0.66999  Biso   1.000  H
  H43      1.0000 0.87926  0.17500  0.16999  Biso   1.000  H
  H44      1.0000 0.12074  0.82500  0.66999  Biso   1.000  H
  H45      1.0000 0.67355  0.76011  0.06463  Biso   1.000  H
  H46      1.0000 0.32645  0.23989  0.56463  Biso   1.000  H
  H47      1.0000 0.82645  0.26011  0.06463  Biso   1.000  H
  H48      1.0000 0.17355  0.73989  0.56463  Biso   1.000  H
  H49      1.0000 0.63716  0.95610  0.04454  Biso   1.000  H
  H50      1.0000 0.36284  0.04390  0.54454  Biso   1.000  H
  H51      1.0000 0.86284  0.45610  0.04454  Biso   1.000  H
  H52      1.0000 0.13716  0.54390  0.54454  Biso   1.000  H
  H53      1.0000 0.54550  0.06875  0.12996  Biso   1.000  H
  H54      1.0000 0.45450  0.93125  0.62996  Biso   1.000  H
  H55      1.0000 0.95450  0.56875  0.12996  Biso   1.000  H
  H56      1.0000 0.04550  0.43125  0.62996  Biso   1.000  H
  H57      1.0000 0.49280  0.98600  0.23518  Biso   1.000  H
  H58      1.0000 0.50720  0.01400  0.73518  Biso   1.000  H
  H59      1.0000 0.00720  0.48600  0.23518  Biso   1.000  H
  H60      1.0000 0.99280  0.51400  0.73518  Biso   1.000  H
  H61      1.0000 0.79379  0.65497  0.28815  Biso   1.000  H
  H62      1.0000 0.20621  0.34503  0.78815  Biso   1.000  H
  H63      1.0000 0.70621  0.15497  0.28815  Biso   1.000  H
  H64      1.0000 0.29379  0.84503  0.78815  Biso   1.000  H
  H65      1.0000 0.98799  0.71822  0.26317  Biso   1.000  H
  H66      1.0000 0.01201  0.28178  0.76317  Biso   1.000  H
  H67      1.0000 0.51201  0.21822  0.26317  Biso   1.000  H
  H68      1.0000 0.48799  0.78178  0.76317  Biso   1.000  H
  H69      1.0000 0.03435  0.91669  0.26880  Biso   1.000  H
  H70      1.0000 0.96565  0.08331  0.76880  Biso   1.000  H
  H71      1.0000 0.46565  0.41669  0.26880  Biso   1.000  H
  H72      1.0000 0.53435  0.58331  0.76880  Biso   1.000  H
  H73      1.0000 0.88525  0.05110  0.29770  Biso   1.000  H
  H74      1.0000 0.11475  0.94890  0.79770  Biso   1.000  H
  H75      1.0000 0.61475  0.55110  0.29770  Biso   1.000  H
  H76      1.0000 0.38525  0.44890  0.79770  Biso   1.000  H
  H77      1.0000 0.69041  0.98754  0.32189  Biso   1.000  H
  H78      1.0000 0.30959  0.01246  0.82189  Biso   1.000  H
  H79      1.0000 0.80959  0.48754  0.32189  Biso   1.000  H
  H80      1.0000 0.19041  0.51246  0.82189  Biso   1.000  H
  H81      1.0000 0.68629  0.90762  0.44402  Biso   1.000  H
  H82      1.0000 0.31371  0.09238  0.94402  Biso   1.000  H
  H83      1.0000 0.81371  0.40762  0.44402  Biso   1.000  H
  H84      1.0000 0.18629  0.59238  0.94402  Biso   1.000  H
  H85      1.0000 0.83919  0.90818  0.52640  Biso   1.000  H
  H86      1.0000 0.16081  0.09182  0.02640  Biso   1.000  H
  H87      1.0000 0.66081  0.40818  0.52640  Biso   1.000  H
  H88      1.0000 0.33919  0.59182  0.02640  Biso   1.000  H
  H89      1.0000 0.91812  0.73247  0.56706  Biso   1.000  H
  H90      1.0000 0.08188  0.26753  0.06706  Biso   1.000  H
  H91      1.0000 0.58188  0.23247  0.56706  Biso   1.000  H
  H92      1.0000 0.41812  0.76753  0.06706  Biso   1.000  H
  H93      1.0000 0.84639  0.55584  0.52383  Biso   1.000  H
  H94      1.0000 0.15361  0.44416  0.02383  Biso   1.000  H
  H95      1.0000 0.65361  0.05584  0.52383  Biso   1.000  H
  H96      1.0000 0.34639  0.94416  0.02383  Biso   1.000  H
  H97      1.0000 0.69376  0.55500  0.44027  Biso   1.000  H
  H98      1.0000 0.30624  0.44500  0.94027  Biso   1.000  H
  H99      1.0000 0.80624  0.05500  0.44027  Biso   1.000  H
  H100     1.0000 0.19376  0.94500  0.94027  Biso   1.000  H
  H101     1.0000 0.43679  0.80122  0.51069  Biso   1.000  H
  H102     1.0000 0.56321  0.19878  0.01069  Biso   1.000  H
  H103     1.0000 0.06321  0.30122  0.51069  Biso   1.000  H
  H104     1.0000 0.93679  0.69878  0.01069  Biso   1.000  H
  H105     1.0000 0.39625  0.72502  0.62019  Biso   1.000  H
  H106     1.0000 0.60375  0.27498  0.12019  Biso   1.000  H
  H107     1.0000 0.10375  0.22502  0.62019  Biso   1.000  H
  H108     1.0000 0.89625  0.77498  0.12019  Biso   1.000  H
  H109     1.0000 0.39308  0.52501  0.63798  Biso   1.000  H
  H110     1.0000 0.60692  0.47499  0.13798  Biso   1.000  H
  H111     1.0000 0.10692  0.02501  0.63798  Biso   1.000  H
  H112     1.0000 0.89308  0.97499  0.13798  Biso   1.000  H
  H113     1.0000 0.43032  0.39886  0.54530  Biso   1.000  H
  H114     1.0000 0.56968  0.60114  0.04530  Biso   1.000  H
  H115     1.0000 0.06968  0.89886  0.54530  Biso   1.000  H
  H116     1.0000 0.93032  0.10114  0.04530  Biso   1.000  H
  H117     1.0000 0.46932  0.47356  0.43640  Biso   1.000  H
  H118     1.0000 0.53068  0.52644  0.93640  Biso   1.000  H
  H119     1.0000 0.03068  0.97356  0.43640  Biso   1.000  H
  H120     1.0000 0.96932  0.02644  0.93640  Biso   1.000  H
  C1       1.0000 0.39650  0.68715  0.35112  Biso   1.000  C
  C2       1.0000 0.60350  0.31285  0.85112  Biso   1.000  C
  C3       1.0000 0.10350  0.18715  0.35112  Biso   1.000  C
  C4       1.0000 0.89650  0.81285  0.85112  Biso   1.000  C
  C5       1.0000 0.41956  0.72957  0.28895  Biso   1.000  C
  C6       1.0000 0.58044  0.27043  0.78895  Biso   1.000  C
  C7       1.0000 0.08044  0.22957  0.28895  Biso   1.000  C
  C8       1.0000 0.91956  0.77043  0.78895  Biso   1.000  C
  C9       1.0000 0.52678  0.77581  0.27544  Biso   1.000  C
  C10      1.0000 0.47322  0.22419  0.77544  Biso   1.000  C
  C11      1.0000 0.97322  0.27581  0.27544  Biso   1.000  C
  C12      1.0000 0.02678  0.72419  0.77544  Biso   1.000  C
  C13      1.0000 0.61149  0.77569  0.32348  Biso   1.000  C
  C14      1.0000 0.38851  0.22431  0.82348  Biso   1.000  C
  C15      1.0000 0.88851  0.27569  0.32348  Biso   1.000  C
  C16      1.0000 0.11149  0.72431  0.82348  Biso   1.000  C
  C17      1.0000 0.58893  0.73163  0.38557  Biso   1.000  C
  C18      1.0000 0.41107  0.26837  0.88557  Biso   1.000  C
  C19      1.0000 0.91107  0.23163  0.38557  Biso   1.000  C
  C20      1.0000 0.08893  0.76837  0.88557  Biso   1.000  C
  C21      1.0000 0.48079  0.68802  0.39955  Biso   1.000  C
  C22      1.0000 0.51921  0.31198  0.89955  Biso   1.000  C
  C23      1.0000 0.01921  0.18802  0.39955  Biso   1.000  C
  C24      1.0000 0.98079  0.81198  0.89955  Biso   1.000  C
  C25      1.0000 0.27883  0.64756  0.36787  Biso   1.000  C
  C26      1.0000 0.72117  0.35244  0.86787  Biso   1.000  C
  C27      1.0000 0.22117  0.14756  0.36787  Biso   1.000  C
  C28      1.0000 0.77883  0.85244  0.86787  Biso   1.000  C
  C29      1.0000 0.20030  0.72153  0.39402  Biso   1.000  C
  C30      1.0000 0.79970  0.27847  0.89402  Biso   1.000  C
  C31      1.0000 0.29970  0.22153  0.39402  Biso   1.000  C
  C32      1.0000 0.70030  0.77847  0.89402  Biso   1.000  C
  C33      1.0000 0.09080  0.68750  0.40954  Biso   1.000  C
  C34      1.0000 0.90920  0.31250  0.90954  Biso   1.000  C
  C35      1.0000 0.40920  0.18750  0.40954  Biso   1.000  C
  C36      1.0000 0.59080  0.81250  0.90954  Biso   1.000  C
  C37      1.0000 0.05845  0.57930  0.39903  Biso   1.000  C
  C38      1.0000 0.94155  0.42070  0.89903  Biso   1.000  C
  C39      1.0000 0.44155  0.07930  0.39903  Biso   1.000  C
  C40      1.0000 0.55845  0.92070  0.89903  Biso   1.000  C
  C41      1.0000 0.13490  0.50560  0.37352  Biso   1.000  C
  C42      1.0000 0.86510  0.49440  0.87352  Biso   1.000  C
  C43      1.0000 0.36510  0.00560  0.37352  Biso   1.000  C
  C44      1.0000 0.63490  0.99440  0.87352  Biso   1.000  C
  C45      1.0000 0.24493  0.53922  0.35829  Biso   1.000  C
  C46      1.0000 0.75507  0.46078  0.85829  Biso   1.000  C
  C47      1.0000 0.25507  0.03922  0.35829  Biso   1.000  C
  C48      1.0000 0.74493  0.96078  0.85829  Biso   1.000  C
  C49      1.0000 0.33068  0.72308  0.23712  Biso   1.000  C
  C50      1.0000 0.66932  0.27692  0.73712  Biso   1.000  C
  C51      1.0000 0.16932  0.22308  0.23712  Biso   1.000  C
  C52      1.0000 0.83068  0.77692  0.73712  Biso   1.000  C
  C53      1.0000 0.26765  0.81520  0.21843  Biso   1.000  C
  C54      1.0000 0.73235  0.18480  0.71843  Biso   1.000  C
  C55      1.0000 0.23235  0.31520  0.21843  Biso   1.000  C
  C56      1.0000 0.76765  0.68480  0.71843  Biso   1.000  C
  C57      1.0000 0.18340  0.80610  0.17152  Biso   1.000  C
  C58      1.0000 0.81660  0.19390  0.67152  Biso   1.000  C
  C59      1.0000 0.31660  0.30610  0.17152  Biso   1.000  C
  C60      1.0000 0.68340  0.69390  0.67152  Biso   1.000  C
  C61      1.0000 0.16090  0.70460  0.14320  Biso   1.000  C
  C62      1.0000 0.83910  0.29540  0.64320  Biso   1.000  C
  C63      1.0000 0.33910  0.20460  0.14320  Biso   1.000  C
  C64      1.0000 0.66090  0.79540  0.64320  Biso   1.000  C
  C65      1.0000 0.22220  0.61340  0.16111  Biso   1.000  C
  C66      1.0000 0.77780  0.38660  0.66111  Biso   1.000  C
  C67      1.0000 0.27780  0.11340  0.16111  Biso   1.000  C
  C68      1.0000 0.72220  0.88660  0.66111  Biso   1.000  C
  C69      1.0000 0.30740  0.62270  0.20749  Biso   1.000  C
  C70      1.0000 0.69260  0.37730  0.70749  Biso   1.000  C
  C71      1.0000 0.19260  0.12270  0.20749  Biso   1.000  C
  C72      1.0000 0.80740  0.87730  0.70749  Biso   1.000  C
  C73      1.0000 0.55306  0.82450  0.21003  Biso   1.000  C
  C74      1.0000 0.44694  0.17550  0.71003  Biso   1.000  C
  C75      1.0000 0.94694  0.32450  0.21003  Biso   1.000  C
  C76      1.0000 0.05306  0.67550  0.71003  Biso   1.000  C
  C77      1.0000 0.60300  0.76200  0.16128  Biso   1.000  C
  C78      1.0000 0.39700  0.23800  0.66128  Biso   1.000  C
  C79      1.0000 0.89700  0.26200  0.16128  Biso   1.000  C
  C80      1.0000 0.10300  0.73800  0.66128  Biso   1.000  C
  C81      1.0000 0.63310  0.81010  0.10207  Biso   1.000  C
  C82      1.0000 0.36690  0.18990  0.60207  Biso   1.000  C
  C83      1.0000 0.86690  0.31010  0.10207  Biso   1.000  C
  C84      1.0000 0.13310  0.68990  0.60207  Biso   1.000  C
  C85      1.0000 0.61270  0.91950  0.09093  Biso   1.000  C
  C86      1.0000 0.38730  0.08050  0.59093  Biso   1.000  C
  C87      1.0000 0.88730  0.41950  0.09093  Biso   1.000  C
  C88      1.0000 0.11270  0.58050  0.59093  Biso   1.000  C
  C89      1.0000 0.56230  0.98140  0.13790  Biso   1.000  C
  C90      1.0000 0.43770  0.01860  0.63790  Biso   1.000  C
  C91      1.0000 0.93770  0.48140  0.13790  Biso   1.000  C
  C92      1.0000 0.06230  0.51860  0.63790  Biso   1.000  C
  C93      1.0000 0.53220  0.93470  0.19793  Biso   1.000  C
  C94      1.0000 0.46780  0.06530  0.69793  Biso   1.000  C
  C95      1.0000 0.96780  0.43470  0.19793  Biso   1.000  C
  C96      1.0000 0.03220  0.56530  0.69793  Biso   1.000  C
  C97      1.0000 0.72879  0.81663  0.30731  Biso   1.000  C
  C98      1.0000 0.27121  0.18337  0.80731  Biso   1.000  C
  C99      1.0000 0.77121  0.31663  0.30731  Biso   1.000  C
  C100     1.0000 0.22879  0.68337  0.80731  Biso   1.000  C
  C101     1.0000 0.81340  0.74260  0.29050  Biso   1.000  C
  C102     1.0000 0.18660  0.25740  0.79050  Biso   1.000  C
  C103     1.0000 0.68660  0.24260  0.29050  Biso   1.000  C
  C104     1.0000 0.31340  0.75740  0.79050  Biso   1.000  C
  C105     1.0000 0.92270  0.77800  0.27602  Biso   1.000  C
  C106     1.0000 0.07730  0.22200  0.77602  Biso   1.000  C
  C107     1.0000 0.57730  0.27800  0.27602  Biso   1.000  C
  C108     1.0000 0.42270  0.72200  0.77602  Biso   1.000  C
  C109     1.0000 0.94840  0.88870  0.27914  Biso   1.000  C
  C110     1.0000 0.05160  0.11130  0.77914  Biso   1.000  C
  C111     1.0000 0.55160  0.38870  0.27914  Biso   1.000  C
  C112     1.0000 0.44840  0.61130  0.77914  Biso   1.000  C
  C113     1.0000 0.86520  0.96350  0.29518  Biso   1.000  C
  C114     1.0000 0.13480  0.03650  0.79518  Biso   1.000  C
  C115     1.0000 0.63480  0.46350  0.29518  Biso   1.000  C
  C116     1.0000 0.36520  0.53650  0.79518  Biso   1.000  C
  C117     1.0000 0.75580  0.92790  0.30889  Biso   1.000  C
  C118     1.0000 0.24420  0.07210  0.80889  Biso   1.000  C
  C119     1.0000 0.74420  0.42790  0.30889  Biso   1.000  C
  C120     1.0000 0.25580  0.57210  0.80889  Biso   1.000  C
  C121     1.0000 0.68009  0.73125  0.43640  Biso   1.000  C
  C122     1.0000 0.31991  0.26875  0.93640  Biso   1.000  C
  C123     1.0000 0.81991  0.23125  0.43640  Biso   1.000  C
  C124     1.0000 0.18009  0.76875  0.93640  Biso   1.000  C
  C125     1.0000 0.72228  0.83020  0.46106  Biso   1.000  C
  C126     1.0000 0.27772  0.16980  0.96106  Biso   1.000  C
  C127     1.0000 0.77772  0.33020  0.46106  Biso   1.000  C
  C128     1.0000 0.22228  0.66980  0.96106  Biso   1.000  C
  C129     1.0000 0.80810  0.83020  0.50711  Biso   1.000  C
  C130     1.0000 0.19190  0.16980  0.00711  Biso   1.000  C
  C131     1.0000 0.69190  0.33020  0.50711  Biso   1.000  C
  C132     1.0000 0.30810  0.66980  0.00711  Biso   1.000  C
  C133     1.0000 0.85260  0.73220  0.52976  Biso   1.000  C
  C134     1.0000 0.14740  0.26780  0.02976  Biso   1.000  C
  C135     1.0000 0.64740  0.23220  0.52976  Biso   1.000  C
  C136     1.0000 0.35260  0.76780  0.02976  Biso   1.000  C
  C137     1.0000 0.81150  0.63340  0.50592  Biso   1.000  C
  C138     1.0000 0.18850  0.36660  0.00592  Biso   1.000  C
  C139     1.0000 0.68850  0.13340  0.50592  Biso   1.000  C
  C140     1.0000 0.31150  0.86660  0.00592  Biso   1.000  C
  C141     1.0000 0.72561  0.63269  0.45952  Biso   1.000  C
  C142     1.0000 0.27439  0.36731  0.95952  Biso   1.000  C
  C143     1.0000 0.77439  0.13269  0.45952  Biso   1.000  C
  C144     1.0000 0.22561  0.86731  0.95952  Biso   1.000  C
  C145     1.0000 0.45519  0.64290  0.46583  Biso   1.000  C
  C146     1.0000 0.54481  0.35710  0.96583  Biso   1.000  C
  C147     1.0000 0.04481  0.14290  0.46583  Biso   1.000  C
  C148     1.0000 0.95519  0.85710  0.96583  Biso   1.000  C
  C149     1.0000 0.43530  0.71210  0.51813  Biso   1.000  C
  C150     1.0000 0.56470  0.28790  0.01813  Biso   1.000  C
  C151     1.0000 0.06470  0.21210  0.51813  Biso   1.000  C
  C152     1.0000 0.93530  0.78790  0.01813  Biso   1.000  C
  C153     1.0000 0.41290  0.66950  0.57959  Biso   1.000  C
  C154     1.0000 0.58710  0.33050  0.07959  Biso   1.000  C
  C155     1.0000 0.08710  0.16950  0.57959  Biso   1.000  C
  C156     1.0000 0.91290  0.83050  0.07959  Biso   1.000  C
  C157     1.0000 0.41080  0.55730  0.58953  Biso   1.000  C
  C158     1.0000 0.58920  0.44270  0.08953  Biso   1.000  C
  C159     1.0000 0.08920  0.05730  0.58953  Biso   1.000  C
  C160     1.0000 0.91080  0.94270  0.08953  Biso   1.000  C
  C161     1.0000 0.43070  0.48790  0.53830  Biso   1.000  C
  C162     1.0000 0.56930  0.51210  0.03830  Biso   1.000  C
  C163     1.0000 0.06930  0.98790  0.53830  Biso   1.000  C
  C164     1.0000 0.93070  0.01210  0.03830  Biso   1.000  C
  C165     1.0000 0.45240  0.52980  0.47666  Biso   1.000  C
  C166     1.0000 0.54760  0.47020  0.97666  Biso   1.000  C
  C167     1.0000 0.04760  0.02980  0.47666  Biso   1.000  C
  C168     1.0000 0.95240  0.97020  0.97666  Biso   1.000  C
