data_image0
_cell_length_a       11.2237
_cell_length_b       13.179
_cell_length_c       13.4073
_cell_angle_alpha    98.694
_cell_angle_beta     104.004
_cell_angle_gamma    99.281

_symmetry_space_group_name_H-M    "P 1"
_symmetry_int_tables_number       1

loop_
  _symmetry_equiv_pos_as_xyz
  'x, y, z'

loop_
  _atom_site_label
  _atom_site_occupancy
  _atom_site_fract_x
  _atom_site_fract_y
  _atom_site_fract_z
  _atom_site_thermal_displace_type
  _atom_site_B_iso_or_equiv
  _atom_site_type_symbol
  H1       1.0000 0.53802  0.21020  0.56124  Biso   1.000  H
  H2       1.0000 0.46198  0.78980  0.43876  Biso   1.000  H
  H3       1.0000 0.48457  0.17532  0.72156  Biso   1.000  H
  H4       1.0000 0.51543  0.82468  0.27844  Biso   1.000  H
  H5       1.0000 0.51021  0.32067  0.87079  Biso   1.000  H
  H6       1.0000 0.48979  0.67933  0.12921  Biso   1.000  H
  H7       1.0000 0.58974  0.50297  0.86064  Biso   1.000  H
  H8       1.0000 0.41026  0.49703  0.13936  Biso   1.000  H
  H9       1.0000 0.67378  0.62877  0.76365  Biso   1.000  H
  H10      1.0000 0.32622  0.37123  0.23635  Biso   1.000  H
  H11      1.0000 0.82728  0.88224  0.55736  Biso   1.000  H
  H12      1.0000 0.17272  0.11776  0.44264  Biso   1.000  H
  H13      1.0000 0.89138  0.00632  0.45181  Biso   1.000  H
  H14      1.0000 0.10862  0.99368  0.54819  Biso   1.000  H
  H15      1.0000 0.93089  0.04001  0.28682  Biso   1.000  H
  H16      1.0000 0.06911  0.95999  0.71318  Biso   1.000  H
  H17      1.0000 0.89957  0.89090  0.13683  Biso   1.000  H
  H18      1.0000 0.10043  0.10910  0.86317  Biso   1.000  H
  H19      1.0000 0.82086  0.71085  0.15102  Biso   1.000  H
  H20      1.0000 0.17914  0.28915  0.84898  Biso   1.000  H
  H21      1.0000 0.75003  0.58620  0.25576  Biso   1.000  H
  H22      1.0000 0.24997  0.41380  0.74424  Biso   1.000  H
  H23      1.0000 0.68174  0.46229  0.35915  Biso   1.000  H
  H24      1.0000 0.31826  0.53771  0.64085  Biso   1.000  H
  H25      1.0000 0.61213  0.33765  0.46040  Biso   1.000  H
  H26      1.0000 0.38787  0.66235  0.53960  Biso   1.000  H
  H27      1.0000 0.57429  0.80575  0.65218  Biso   1.000  H
  H28      1.0000 0.42571  0.19425  0.34782  Biso   1.000  H
  H29      1.0000 0.61378  0.94788  0.80546  Biso   1.000  H
  H30      1.0000 0.38622  0.05212  0.19454  Biso   1.000  H
  H31      1.0000 0.82325  0.00407  0.93072  Biso   1.000  H
  H32      1.0000 0.17675  0.99593  0.06928  Biso   1.000  H
  H33      1.0000 0.99491  0.91722  0.90169  Biso   1.000  H
  H34      1.0000 0.00509  0.08278  0.09831  Biso   1.000  H
  H35      1.0000 0.95527  0.77370  0.74768  Biso   1.000  H
  H36      1.0000 0.04473  0.22630  0.25232  Biso   1.000  H
  H37      1.0000 0.81015  0.30352  0.77443  Biso   1.000  H
  H38      1.0000 0.18985  0.69648  0.22557  Biso   1.000  H
  H39      1.0000 0.85854  0.22792  0.93213  Biso   1.000  H
  H40      1.0000 0.14146  0.77208  0.06787  Biso   1.000  H
  H41      1.0000 0.05529  0.30403  0.07496  Biso   1.000  H
  H42      1.0000 0.94471  0.69597  0.92504  Biso   1.000  H
  H43      1.0000 0.20269  0.45678  0.06079  Biso   1.000  H
  H44      1.0000 0.79731  0.54322  0.93921  Biso   1.000  H
  H45      1.0000 0.26240  0.58758  0.96012  Biso   1.000  H
  H46      1.0000 0.73760  0.41242  0.03988  Biso   1.000  H
  H47      1.0000 0.38118  0.84969  0.74825  Biso   1.000  H
  H48      1.0000 0.61882  0.15031  0.25175  Biso   1.000  H
  H49      1.0000 0.44099  0.97422  0.63999  Biso   1.000  H
  H50      1.0000 0.55901  0.02578  0.36001  Biso   1.000  H
  H51      1.0000 0.39890  0.03450  0.47286  Biso   1.000  H
  H52      1.0000 0.60110  0.96550  0.52714  Biso   1.000  H
  H53      1.0000 0.21456  0.94182  0.32431  Biso   1.000  H
  H54      1.0000 0.78544  0.05818  0.67569  Biso   1.000  H
  H55      1.0000 0.06928  0.79072  0.34456  Biso   1.000  H
  H56      1.0000 0.93072  0.20928  0.65544  Biso   1.000  H
  H57      1.0000 0.00581  0.67031  0.45483  Biso   1.000  H
  H58      1.0000 0.99419  0.32969  0.54517  Biso   1.000  H
  H59      1.0000 0.94020  0.55153  0.56347  Biso   1.000  H
  H60      1.0000 0.05980  0.44847  0.43653  Biso   1.000  H
  H61      1.0000 0.87462  0.43051  0.66986  Biso   1.000  H
  H62      1.0000 0.12538  0.56949  0.33014  Biso   1.000  H
  H63      1.0000 0.25886  0.84894  0.94709  Biso   1.000  H
  H64      1.0000 0.74114  0.15106  0.05291  Biso   1.000  H
  H65      1.0000 0.44661  0.94314  0.08695  Biso   1.000  H
  H66      1.0000 0.55339  0.05686  0.91305  Biso   1.000  H
  H67      1.0000 0.64751  0.88758  0.10307  Biso   1.000  H
  H68      1.0000 0.35249  0.11242  0.89693  Biso   1.000  H
  H69      1.0000 0.66128  0.73808  0.97498  Biso   1.000  H
  H70      1.0000 0.33872  0.26192  0.02502  Biso   1.000  H
  H71      1.0000 0.47365  0.64347  0.83328  Biso   1.000  H
  H72      1.0000 0.52635  0.35653  0.16672  Biso   1.000  H
  C1       1.0000 0.54977  0.27413  0.62699  Biso   1.000  C
  C2       1.0000 0.45023  0.72587  0.37301  Biso   1.000  C
  C3       1.0000 0.52140  0.25522  0.71539  Biso   1.000  C
  C4       1.0000 0.47860  0.74478  0.28461  Biso   1.000  C
  C5       1.0000 0.53570  0.33841  0.80103  Biso   1.000  C
  C6       1.0000 0.46430  0.66159  0.19897  Biso   1.000  C
  C7       1.0000 0.57975  0.43883  0.79536  Biso   1.000  C
  C8       1.0000 0.42025  0.56117  0.20464  Biso   1.000  C
  C9       1.0000 0.61254  0.46377  0.70384  Biso   1.000  C
  C10      1.0000 0.38746  0.53623  0.29616  Biso   1.000  C
  C11      1.0000 0.65981  0.56539  0.69681  Biso   1.000  C
  C12      1.0000 0.34019  0.43461  0.30319  Biso   1.000  C
  C13      1.0000 0.68957  0.58976  0.60547  Biso   1.000  C
  C14      1.0000 0.31043  0.41024  0.39453  Biso   1.000  C
  C15      1.0000 0.73751  0.69306  0.59726  Biso   1.000  C
  C16      1.0000 0.26249  0.30694  0.40274  Biso   1.000  C
  C17      1.0000 0.76320  0.71472  0.50371  Biso   1.000  C
  C18      1.0000 0.23680  0.28528  0.49629  Biso   1.000  C
  C19      1.0000 0.80884  0.81688  0.49166  Biso   1.000  C
  C20      1.0000 0.19116  0.18312  0.50834  Biso   1.000  C
  C21      1.0000 0.83096  0.83776  0.39880  Biso   1.000  C
  C22      1.0000 0.16904  0.16224  0.60120  Biso   1.000  C
  C23      1.0000 0.87485  0.94180  0.38574  Biso   1.000  C
  C24      1.0000 0.12515  0.05820  0.61426  Biso   1.000  C
  C25      1.0000 0.89720  0.96009  0.29450  Biso   1.000  C
  C26      1.0000 0.10280  0.03991  0.70550  Biso   1.000  C
  C27      1.0000 0.87849  0.87516  0.20900  Biso   1.000  C
  C28      1.0000 0.12151  0.12484  0.79100  Biso   1.000  C
  C29      1.0000 0.83574  0.77564  0.21662  Biso   1.000  C
  C30      1.0000 0.16426  0.22436  0.78338  Biso   1.000  C
  C31      1.0000 0.80969  0.75186  0.31108  Biso   1.000  C
  C32      1.0000 0.19031  0.24814  0.68892  Biso   1.000  C
  C33      1.0000 0.76666  0.65116  0.32173  Biso   1.000  C
  C34      1.0000 0.23334  0.34884  0.67827  Biso   1.000  C
  C35      1.0000 0.74162  0.62875  0.41520  Biso   1.000  C
  C36      1.0000 0.25838  0.37125  0.58480  Biso   1.000  C
  C37      1.0000 0.69697  0.52673  0.42533  Biso   1.000  C
  C38      1.0000 0.30303  0.47327  0.57467  Biso   1.000  C
  C39      1.0000 0.67038  0.50452  0.51706  Biso   1.000  C
  C40      1.0000 0.32962  0.49548  0.48294  Biso   1.000  C
  C41      1.0000 0.62484  0.40136  0.52672  Biso   1.000  C
  C42      1.0000 0.37516  0.59864  0.47328  Biso   1.000  C
  C43      1.0000 0.59635  0.37895  0.61652  Biso   1.000  C
  C44      1.0000 0.40365  0.62105  0.38348  Biso   1.000  C
  C45      1.0000 0.76231  0.78067  0.68980  Biso   1.000  C
  C46      1.0000 0.23769  0.21933  0.31020  Biso   1.000  C
  C47      1.0000 0.66766  0.83051  0.70698  Biso   1.000  C
  C48      1.0000 0.33234  0.16949  0.29302  Biso   1.000  C
  C49      1.0000 0.69020  0.91034  0.79312  Biso   1.000  C
  C50      1.0000 0.30980  0.08966  0.20688  Biso   1.000  C
  C51      1.0000 0.80620  0.94119  0.86272  Biso   1.000  C
  C52      1.0000 0.19380  0.05881  0.13728  Biso   1.000  C
  C53      1.0000 0.90160  0.89288  0.84661  Biso   1.000  C
  C54      1.0000 0.09840  0.10712  0.15339  Biso   1.000  C
  C55      1.0000 0.87980  0.81246  0.76033  Biso   1.000  C
  C56      1.0000 0.12020  0.18754  0.23967  Biso   1.000  C
  C57      1.0000 0.89728  0.33540  0.83611  Biso   1.000  C
  C58      1.0000 0.10272  0.66460  0.16389  Biso   1.000  C
  C59      1.0000 0.92442  0.29409  0.92315  Biso   1.000  C
  C60      1.0000 0.07558  0.70591  0.07685  Biso   1.000  C
  C61      1.0000 0.03675  0.33708  0.00438  Biso   1.000  C
  C62      1.0000 0.96325  0.66292  0.99562  Biso   1.000  C
  C63      1.0000 0.11898  0.42128  0.99668  Biso   1.000  C
  C64      1.0000 0.88102  0.57872  0.00332  Biso   1.000  C
  C65      1.0000 0.09633  0.46737  0.90577  Biso   1.000  C
  C66      1.0000 0.90367  0.53263  0.09423  Biso   1.000  C
  C67      1.0000 0.17859  0.55303  0.89567  Biso   1.000  C
  C68      1.0000 0.82141  0.44697  0.10433  Biso   1.000  C
  C69      1.0000 0.15689  0.59757  0.80481  Biso   1.000  C
  C70      1.0000 0.84311  0.40243  0.19519  Biso   1.000  C
  C71      1.0000 0.23996  0.68517  0.79378  Biso   1.000  C
  C72      1.0000 0.76004  0.31483  0.20622  Biso   1.000  C
  C73      1.0000 0.21751  0.72345  0.69945  Biso   1.000  C
  C74      1.0000 0.78249  0.27655  0.30055  Biso   1.000  C
  C75      1.0000 0.29912  0.80980  0.68410  Biso   1.000  C
  C76      1.0000 0.70088  0.19020  0.31590  Biso   1.000  C
  C77      1.0000 0.27860  0.84532  0.59071  Biso   1.000  C
  C78      1.0000 0.72140  0.15468  0.40929  Biso   1.000  C
  C79      1.0000 0.36019  0.93324  0.57491  Biso   1.000  C
  C80      1.0000 0.63981  0.06676  0.42509  Biso   1.000  C
  C81      1.0000 0.33735  0.96618  0.48269  Biso   1.000  C
  C82      1.0000 0.66265  0.03382  0.51731  Biso   1.000  C
  C83      1.0000 0.23132  0.91380  0.39789  Biso   1.000  C
  C84      1.0000 0.76868  0.08620  0.60211  Biso   1.000  C
  C85      1.0000 0.15093  0.83048  0.40893  Biso   1.000  C
  C86      1.0000 0.84907  0.16952  0.59107  Biso   1.000  C
  C87      1.0000 0.17004  0.79297  0.50497  Biso   1.000  C
  C88      1.0000 0.82996  0.20703  0.49503  Biso   1.000  C
  C89      1.0000 0.08810  0.70952  0.51905  Biso   1.000  C
  C90      1.0000 0.91190  0.29048  0.48095  Biso   1.000  C
  C91      1.0000 0.10742  0.67281  0.61362  Biso   1.000  C
  C92      1.0000 0.89258  0.32719  0.38638  Biso   1.000  C
  C93      1.0000 0.02363  0.58865  0.62742  Biso   1.000  C
  C94      1.0000 0.97637  0.41135  0.37258  Biso   1.000  C
  C95      1.0000 0.04461  0.55008  0.71991  Biso   1.000  C
  C96      1.0000 0.95539  0.44992  0.28009  Biso   1.000  C
  C97      1.0000 0.95970  0.46462  0.73320  Biso   1.000  C
  C98      1.0000 0.04030  0.53538  0.26680  Biso   1.000  C
  C99      1.0000 0.98251  0.42281  0.82263  Biso   1.000  C
  C100     1.0000 0.01749  0.57719  0.17737  Biso   1.000  C
  C101     1.0000 0.35312  0.73902  0.88136  Biso   1.000  C
  C102     1.0000 0.64688  0.26098  0.11864  Biso   1.000  C
  C103     1.0000 0.34744  0.82295  0.95350  Biso   1.000  C
  C104     1.0000 0.65256  0.17705  0.04650  Biso   1.000  C
  C105     1.0000 0.45350  0.87577  0.03197  Biso   1.000  C
  C106     1.0000 0.54650  0.12423  0.96803  Biso   1.000  C
  C107     1.0000 0.56470  0.84591  0.04055  Biso   1.000  C
  C108     1.0000 0.43530  0.15409  0.95945  Biso   1.000  C
  C109     1.0000 0.57209  0.76280  0.96989  Biso   1.000  C
  C110     1.0000 0.42791  0.23720  0.03011  Biso   1.000  C
  C111     1.0000 0.46661  0.70908  0.89028  Biso   1.000  C
  C112     1.0000 0.53339  0.29092  0.10972  Biso   1.000  C
