data_image0
_cell_length_a       7.841
_cell_length_b       10.06
_cell_length_c       22.693
_cell_angle_alpha    93.742
_cell_angle_beta     90
_cell_angle_gamma    90

_symmetry_space_group_name_H-M    "P 1"
_symmetry_int_tables_number       1

loop_
  _symmetry_equiv_pos_as_xyz
  'x, y, z'

loop_
  _atom_site_label
  _atom_site_occupancy
  _atom_site_fract_x
  _atom_site_fract_y
  _atom_site_fract_z
  _atom_site_thermal_displace_type
  _atom_site_B_iso_or_equiv
  _atom_site_type_symbol
  H1       1.0000 0.80873  0.27619  0.97484  Biso   1.000  H
  H2       1.0000 0.19127  0.72381  0.02516  Biso   1.000  H
  H3       1.0000 0.30873  0.22381  0.52516  Biso   1.000  H
  H4       1.0000 0.69127  0.77619  0.47484  Biso   1.000  H
  H5       1.0000 0.87865  0.41388  0.06518  Biso   1.000  H
  H6       1.0000 0.12135  0.58612  0.93482  Biso   1.000  H
  H7       1.0000 0.37865  0.08612  0.43482  Biso   1.000  H
  H8       1.0000 0.62135  0.91388  0.56518  Biso   1.000  H
  H9       1.0000 0.78579  0.64775  0.07793  Biso   1.000  H
  H10      1.0000 0.21421  0.35225  0.92207  Biso   1.000  H
  H11      1.0000 0.28579  0.85225  0.42207  Biso   1.000  H
  H12      1.0000 0.71421  0.14775  0.57793  Biso   1.000  H
  H13      1.0000 0.63772  0.84037  0.03873  Biso   1.000  H
  H14      1.0000 0.36228  0.15963  0.96127  Biso   1.000  H
  H15      1.0000 0.13772  0.65963  0.46127  Biso   1.000  H
  H16      1.0000 0.86228  0.34037  0.53873  Biso   1.000  H
  H17      1.0000 0.47463  0.93798  0.95817  Biso   1.000  H
  H18      1.0000 0.52537  0.06202  0.04183  Biso   1.000  H
  H19      1.0000 0.97463  0.56202  0.54183  Biso   1.000  H
  H20      1.0000 0.02537  0.43798  0.45817  Biso   1.000  H
  H21      1.0000 0.40613  0.80322  0.86733  Biso   1.000  H
  H22      1.0000 0.59387  0.19678  0.13267  Biso   1.000  H
  H23      1.0000 0.90613  0.69678  0.63267  Biso   1.000  H
  H24      1.0000 0.09387  0.30322  0.36733  Biso   1.000  H
  H25      1.0000 0.40988  0.59466  0.80722  Biso   1.000  H
  H26      1.0000 0.59012  0.40534  0.19278  Biso   1.000  H
  H27      1.0000 0.90988  0.90534  0.69278  Biso   1.000  H
  H28      1.0000 0.09012  0.09466  0.30722  Biso   1.000  H
  H29      1.0000 0.42310  0.33336  0.74769  Biso   1.000  H
  H30      1.0000 0.57690  0.66664  0.25231  Biso   1.000  H
  H31      1.0000 0.92310  0.16664  0.75231  Biso   1.000  H
  H32      1.0000 0.07690  0.83336  0.24769  Biso   1.000  H
  H33      1.0000 0.71453  0.14830  0.88414  Biso   1.000  H
  H34      1.0000 0.28547  0.85170  0.11586  Biso   1.000  H
  H35      1.0000 0.21453  0.35170  0.61586  Biso   1.000  H
  H36      1.0000 0.78547  0.64830  0.38414  Biso   1.000  H
  H37      1.0000 0.41451  0.13912  0.69609  Biso   1.000  H
  H38      1.0000 0.58549  0.86088  0.30391  Biso   1.000  H
  H39      1.0000 0.91451  0.36088  0.80391  Biso   1.000  H
  H40      1.0000 0.08549  0.63912  0.19609  Biso   1.000  H
  H41      1.0000 0.40705  0.92926  0.63973  Biso   1.000  H
  H42      1.0000 0.59295  0.07074  0.36027  Biso   1.000  H
  H43      1.0000 0.90705  0.57074  0.86027  Biso   1.000  H
  H44      1.0000 0.09295  0.42926  0.13973  Biso   1.000  H
  H45      1.0000 0.69757  0.75164  0.77490  Biso   1.000  H
  H46      1.0000 0.30243  0.24836  0.22510  Biso   1.000  H
  H47      1.0000 0.19757  0.74836  0.72510  Biso   1.000  H
  H48      1.0000 0.80243  0.25164  0.27490  Biso   1.000  H
  H49      1.0000 0.70587  0.96262  0.83077  Biso   1.000  H
  H50      1.0000 0.29413  0.03738  0.16923  Biso   1.000  H
  H51      1.0000 0.20587  0.53738  0.66923  Biso   1.000  H
  H52      1.0000 0.79413  0.46262  0.33077  Biso   1.000  H
  H53      1.0000 0.38666  0.75539  0.59703  Biso   1.000  H
  H54      1.0000 0.61334  0.24461  0.40297  Biso   1.000  H
  H55      1.0000 0.88666  0.74461  0.90297  Biso   1.000  H
  H56      1.0000 0.11334  0.25539  0.09703  Biso   1.000  H
  H57      1.0000 0.38839  0.54457  0.53847  Biso   1.000  H
  H58      1.0000 0.61161  0.45543  0.46153  Biso   1.000  H
  H59      1.0000 0.88839  0.95543  0.96153  Biso   1.000  H
  H60      1.0000 0.11161  0.04457  0.03847  Biso   1.000  H
  H61      1.0000 0.55168  0.35166  0.57144  Biso   1.000  H
  H62      1.0000 0.44832  0.64834  0.42856  Biso   1.000  H
  H63      1.0000 0.05168  0.14834  0.92856  Biso   1.000  H
  H64      1.0000 0.94832  0.85166  0.07144  Biso   1.000  H
  H65      1.0000 0.71355  0.37556  0.66588  Biso   1.000  H
  H66      1.0000 0.28645  0.62444  0.33412  Biso   1.000  H
  H67      1.0000 0.21355  0.12444  0.83412  Biso   1.000  H
  H68      1.0000 0.78645  0.87556  0.16588  Biso   1.000  H
  H69      1.0000 0.71346  0.58571  0.72484  Biso   1.000  H
  H70      1.0000 0.28654  0.41429  0.27516  Biso   1.000  H
  H71      1.0000 0.21346  0.91429  0.77516  Biso   1.000  H
  H72      1.0000 0.78654  0.08571  0.22484  Biso   1.000  H
  C1       1.0000 0.76950  0.38030  0.97840  Biso   1.000  C
  C2       1.0000 0.23050  0.61970  0.02160  Biso   1.000  C
  C3       1.0000 0.26950  0.11970  0.52160  Biso   1.000  C
  C4       1.0000 0.73050  0.88030  0.47840  Biso   1.000  C
  C5       1.0000 0.67790  0.43220  0.93287  Biso   1.000  C
  C6       1.0000 0.32210  0.56780  0.06713  Biso   1.000  C
  C7       1.0000 0.17790  0.06780  0.56713  Biso   1.000  C
  C8       1.0000 0.82210  0.93220  0.43287  Biso   1.000  C
  C9       1.0000 0.80910  0.45850  0.02999  Biso   1.000  C
  C10      1.0000 0.19090  0.54150  0.97001  Biso   1.000  C
  C11      1.0000 0.30910  0.04150  0.47001  Biso   1.000  C
  C12      1.0000 0.69090  0.95850  0.52999  Biso   1.000  C
  C13      1.0000 0.75860  0.58890  0.03695  Biso   1.000  C
  C14      1.0000 0.24140  0.41110  0.96305  Biso   1.000  C
  C15      1.0000 0.25860  0.91110  0.46305  Biso   1.000  C
  C16      1.0000 0.74140  0.08890  0.53695  Biso   1.000  C
  C17      1.0000 0.66620  0.64750  0.99171  Biso   1.000  C
  C18      1.0000 0.33380  0.35250  0.00829  Biso   1.000  C
  C19      1.0000 0.16620  0.85250  0.50829  Biso   1.000  C
  C20      1.0000 0.83380  0.14750  0.49171  Biso   1.000  C
  C21      1.0000 0.60990  0.78190  0.99771  Biso   1.000  C
  C22      1.0000 0.39010  0.21810  0.00229  Biso   1.000  C
  C23      1.0000 0.10990  0.71810  0.50229  Biso   1.000  C
  C24      1.0000 0.89010  0.28190  0.49771  Biso   1.000  C
  C25      1.0000 0.51840  0.83510  0.95350  Biso   1.000  C
  C26      1.0000 0.48160  0.16490  0.04650  Biso   1.000  C
  C27      1.0000 0.01840  0.66490  0.54650  Biso   1.000  C
  C28      1.0000 0.98160  0.33510  0.45350  Biso   1.000  C
  C29      1.0000 0.47980  0.75910  0.90174  Biso   1.000  C
  C30      1.0000 0.52020  0.24090  0.09826  Biso   1.000  C
  C31      1.0000 0.97980  0.74090  0.59826  Biso   1.000  C
  C32      1.0000 0.02020  0.25910  0.40174  Biso   1.000  C
  C33      1.0000 0.53030  0.62700  0.89348  Biso   1.000  C
  C34      1.0000 0.46970  0.37300  0.10652  Biso   1.000  C
  C35      1.0000 0.03030  0.87300  0.60652  Biso   1.000  C
  C36      1.0000 0.96970  0.12700  0.39348  Biso   1.000  C
  C37      1.0000 0.48390  0.54760  0.84086  Biso   1.000  C
  C38      1.0000 0.51610  0.45240  0.15914  Biso   1.000  C
  C39      1.0000 0.98390  0.95240  0.65914  Biso   1.000  C
  C40      1.0000 0.01610  0.04760  0.34086  Biso   1.000  C
  C41      1.0000 0.52750  0.41680  0.83401  Biso   1.000  C
  C42      1.0000 0.47250  0.58320  0.16599  Biso   1.000  C
  C43      1.0000 0.02750  0.08320  0.66599  Biso   1.000  C
  C44      1.0000 0.97250  0.91680  0.33401  Biso   1.000  C
  C45      1.0000 0.49400  0.31620  0.78756  Biso   1.000  C
  C46      1.0000 0.50600  0.68380  0.21244  Biso   1.000  C
  C47      1.0000 0.99400  0.18380  0.71244  Biso   1.000  C
  C48      1.0000 0.00600  0.81620  0.28756  Biso   1.000  C
  C49      1.0000 0.56530  0.19930  0.80289  Biso   1.000  C
  C50      1.0000 0.43470  0.80070  0.19711  Biso   1.000  C
  C51      1.0000 0.06530  0.30070  0.69711  Biso   1.000  C
  C52      1.0000 0.93470  0.69930  0.30289  Biso   1.000  C
  C53      1.0000 0.64770  0.22350  0.86080  Biso   1.000  C
  C54      1.0000 0.35230  0.77650  0.13920  Biso   1.000  C
  C55      1.0000 0.14770  0.27650  0.63920  Biso   1.000  C
  C56      1.0000 0.85230  0.72350  0.36080  Biso   1.000  C
  C57      1.0000 0.62640  0.56850  0.93900  Biso   1.000  C
  C58      1.0000 0.37360  0.43150  0.06100  Biso   1.000  C
  C59      1.0000 0.12640  0.93150  0.56100  Biso   1.000  C
  C60      1.0000 0.87360  0.06850  0.43900  Biso   1.000  C
  C61      1.0000 0.62640  0.35450  0.87957  Biso   1.000  C
  C62      1.0000 0.37360  0.64550  0.12043  Biso   1.000  C
  C63      1.0000 0.12640  0.14550  0.62043  Biso   1.000  C
  C64      1.0000 0.87360  0.85450  0.37957  Biso   1.000  C
  C65      1.0000 0.56150  0.07010  0.76856  Biso   1.000  C
  C66      1.0000 0.43850  0.92990  0.23144  Biso   1.000  C
  C67      1.0000 0.06150  0.42990  0.73144  Biso   1.000  C
  C68      1.0000 0.93850  0.57010  0.26856  Biso   1.000  C
  C69      1.0000 0.47870  0.05460  0.71400  Biso   1.000  C
  C70      1.0000 0.52130  0.94540  0.28600  Biso   1.000  C
  C71      1.0000 0.97870  0.44540  0.78600  Biso   1.000  C
  C72      1.0000 0.02130  0.55460  0.21400  Biso   1.000  C
  C73      1.0000 0.47440  0.93360  0.68172  Biso   1.000  C
  C74      1.0000 0.52560  0.06640  0.31828  Biso   1.000  C
  C75      1.0000 0.97440  0.56640  0.81828  Biso   1.000  C
  C76      1.0000 0.02560  0.43360  0.18172  Biso   1.000  C
  C77      1.0000 0.55300  0.81990  0.70159  Biso   1.000  C
  C78      1.0000 0.44700  0.18010  0.29841  Biso   1.000  C
  C79      1.0000 0.05300  0.68010  0.79841  Biso   1.000  C
  C80      1.0000 0.94700  0.31990  0.20159  Biso   1.000  C
  C81      1.0000 0.63460  0.83570  0.75629  Biso   1.000  C
  C82      1.0000 0.36540  0.16430  0.24371  Biso   1.000  C
  C83      1.0000 0.13460  0.66430  0.74371  Biso   1.000  C
  C84      1.0000 0.86540  0.33570  0.25629  Biso   1.000  C
  C85      1.0000 0.63930  0.95720  0.78859  Biso   1.000  C
  C86      1.0000 0.36070  0.04280  0.21141  Biso   1.000  C
  C87      1.0000 0.13930  0.54280  0.71141  Biso   1.000  C
  C88      1.0000 0.86070  0.45720  0.28859  Biso   1.000  C
  C89      1.0000 0.55130  0.69010  0.66590  Biso   1.000  C
  C90      1.0000 0.44870  0.30990  0.33410  Biso   1.000  C
  C91      1.0000 0.05130  0.80990  0.83410  Biso   1.000  C
  C92      1.0000 0.94870  0.19010  0.16590  Biso   1.000  C
  C93      1.0000 0.46130  0.67380  0.61283  Biso   1.000  C
  C94      1.0000 0.53870  0.32620  0.38717  Biso   1.000  C
  C95      1.0000 0.96130  0.82620  0.88717  Biso   1.000  C
  C96      1.0000 0.03870  0.17380  0.11283  Biso   1.000  C
  C97      1.0000 0.46200  0.55360  0.57924  Biso   1.000  C
  C98      1.0000 0.53800  0.44640  0.42076  Biso   1.000  C
  C99      1.0000 0.96200  0.94640  0.92076  Biso   1.000  C
  C100     1.0000 0.03800  0.05360  0.07924  Biso   1.000  C
  C101     1.0000 0.55270  0.44630  0.59776  Biso   1.000  C
  C102     1.0000 0.44730  0.55370  0.40224  Biso   1.000  C
  C103     1.0000 0.05270  0.05370  0.90224  Biso   1.000  C
  C104     1.0000 0.94730  0.94630  0.09776  Biso   1.000  C
  C105     1.0000 0.64220  0.45930  0.65015  Biso   1.000  C
  C106     1.0000 0.35780  0.54070  0.34985  Biso   1.000  C
  C107     1.0000 0.14220  0.04070  0.84985  Biso   1.000  C
  C108     1.0000 0.85780  0.95930  0.15015  Biso   1.000  C
  C109     1.0000 0.64130  0.57950  0.68379  Biso   1.000  C
  C110     1.0000 0.35870  0.42050  0.31621  Biso   1.000  C
  C111     1.0000 0.14130  0.92050  0.81621  Biso   1.000  C
  C112     1.0000 0.85870  0.07950  0.18379  Biso   1.000  C
