data_image0
_cell_length_a       6.06
_cell_length_b       7.9
_cell_length_c       14.8835
_cell_angle_alpha    96.7425
_cell_angle_beta     100.541
_cell_angle_gamma    94.2

_symmetry_space_group_name_H-M    "P 1"
_symmetry_int_tables_number       1

loop_
  _symmetry_equiv_pos_as_xyz
  'x, y, z'

loop_
  _atom_site_label
  _atom_site_occupancy
  _atom_site_fract_x
  _atom_site_fract_y
  _atom_site_fract_z
  _atom_site_thermal_displace_type
  _atom_site_B_iso_or_equiv
  _atom_site_type_symbol
  H1       1.0000 0.08510  0.27950  0.48109  Biso   1.000  H
  H2       1.0000 0.91490  0.72050  0.51891  Biso   1.000  H
  H3       1.0000 0.57753  0.34224  0.25154  Biso   1.000  H
  H4       1.0000 0.42247  0.65776  0.74846  Biso   1.000  H
  H5       1.0000 0.72496  0.39014  0.41537  Biso   1.000  H
  H6       1.0000 0.27504  0.60986  0.58463  Biso   1.000  H
  H7       1.0000 0.29841  0.13349  0.37591  Biso   1.000  H
  H8       1.0000 0.70159  0.86651  0.62409  Biso   1.000  H
  H9       1.0000 0.32727  0.01592  0.21583  Biso   1.000  H
  H10      1.0000 0.67273  0.98408  0.78417  Biso   1.000  H
  H11      1.0000 0.37208  0.89689  0.05993  Biso   1.000  H
  H12      1.0000 0.62792  0.10311  0.94007  Biso   1.000  H
  H13      1.0000 0.60587  0.22207  0.09582  Biso   1.000  H
  H14      1.0000 0.39413  0.77793  0.90418  Biso   1.000  H
  H15      1.0000 0.65003  0.91960  0.46544  Biso   1.000  H
  H16      1.0000 0.34997  0.08040  0.53456  Biso   1.000  H
  H17      1.0000 0.84502  0.89628  0.33498  Biso   1.000  H
  H18      1.0000 0.15498  0.10372  0.66502  Biso   1.000  H
  H19      1.0000 0.86537  0.78175  0.17557  Biso   1.000  H
  H20      1.0000 0.13463  0.21825  0.82443  Biso   1.000  H
  H21      1.0000 0.88092  0.65477  0.01712  Biso   1.000  H
  H22      1.0000 0.11908  0.34523  0.98288  Biso   1.000  H
  H23      1.0000 0.10412  0.47345  0.14006  Biso   1.000  H
  H24      1.0000 0.89588  0.52655  0.85994  Biso   1.000  H
  H25      1.0000 0.08790  0.58817  0.30062  Biso   1.000  H
  H26      1.0000 0.91210  0.41183  0.69938  Biso   1.000  H
  H27      1.0000 0.25761  0.75417  0.44902  Biso   1.000  H
  H28      1.0000 0.74239  0.24583  0.55098  Biso   1.000  H
  C1       1.0000 0.01830  0.25870  0.40710  Biso   1.000  C
  C2       1.0000 0.98170  0.74130  0.59290  Biso   1.000  C
  C3       1.0000 0.73660  0.29380  0.27860  Biso   1.000  C
  C4       1.0000 0.26340  0.70620  0.72140  Biso   1.000  C
  C5       1.0000 0.82000  0.31870  0.37060  Biso   1.000  C
  C6       1.0000 0.18000  0.68130  0.62940  Biso   1.000  C
  C7       1.0000 0.13610  0.17840  0.34910  Biso   1.000  C
  C8       1.0000 0.86390  0.82160  0.65090  Biso   1.000  C
  C9       1.0000 0.06040  0.14780  0.25080  Biso   1.000  C
  C10      1.0000 0.93960  0.85220  0.74920  Biso   1.000  C
  C11      1.0000 0.16500  0.06200  0.18940  Biso   1.000  C
  C12      1.0000 0.83500  0.93800  0.81060  Biso   1.000  C
  C13      1.0000 0.09510  0.03780  0.09500  Biso   1.000  C
  C14      1.0000 0.90490  0.96220  0.90500  Biso   1.000  C
  C15      1.0000 0.20950  0.94100  0.03350  Biso   1.000  C
  C16      1.0000 0.79050  0.05900  0.96650  Biso   1.000  C
  C17      1.0000 0.87730  0.07940  0.05670  Biso   1.000  C
  C18      1.0000 0.12270  0.92060  0.94330  Biso   1.000  C
  C19      1.0000 0.76750  0.17650  0.12250  Biso   1.000  C
  C20      1.0000 0.23250  0.82350  0.87750  Biso   1.000  C
  C21      1.0000 0.84840  0.19990  0.21490  Biso   1.000  C
  C22      1.0000 0.15160  0.80010  0.78510  Biso   1.000  C
  C23      1.0000 0.57330  0.83870  0.40140  Biso   1.000  C
  C24      1.0000 0.42670  0.16130  0.59860  Biso   1.000  C
  C25      1.0000 0.68050  0.82510  0.32860  Biso   1.000  C
  C26      1.0000 0.31950  0.17490  0.67140  Biso   1.000  C
  C27      1.0000 0.58760  0.72240  0.24340  Biso   1.000  C
  C28      1.0000 0.41240  0.27760  0.75660  Biso   1.000  C
  C29      1.0000 0.70100  0.71040  0.16860  Biso   1.000  C
  C30      1.0000 0.29900  0.28960  0.83140  Biso   1.000  C
  C31      1.0000 0.60620  0.60360  0.08460  Biso   1.000  C
  C32      1.0000 0.39380  0.39640  0.91540  Biso   1.000  C
  C33      1.0000 0.71380  0.58690  0.01000  Biso   1.000  C
  C34      1.0000 0.28620  0.41310  0.99000  Biso   1.000  C
  C35      1.0000 0.37940  0.51320  0.07540  Biso   1.000  C
  C36      1.0000 0.62060  0.48680  0.92460  Biso   1.000  C
  C37      1.0000 0.27430  0.53800  0.14830  Biso   1.000  C
  C38      1.0000 0.72570  0.46200  0.85170  Biso   1.000  C
  C39      1.0000 0.36520  0.62810  0.23420  Biso   1.000  C
  C40      1.0000 0.63480  0.37190  0.76580  Biso   1.000  C
  C41      1.0000 0.25700  0.65450  0.30940  Biso   1.000  C
  C42      1.0000 0.74300  0.34550  0.69060  Biso   1.000  C
  C43      1.0000 0.34870  0.74290  0.39250  Biso   1.000  C
  C44      1.0000 0.65130  0.25710  0.60750  Biso   1.000  C
