data_image0
_cell_length_a       6.306
_cell_length_b       7.697
_cell_length_c       16.48
_cell_angle_alpha    98.77
_cell_angle_beta     91.25
_cell_angle_gamma    95.81

_symmetry_space_group_name_H-M    "P 1"
_symmetry_int_tables_number       1

loop_
  _symmetry_equiv_pos_as_xyz
  'x, y, z'

loop_
  _atom_site_label
  _atom_site_occupancy
  _atom_site_fract_x
  _atom_site_fract_y
  _atom_site_fract_z
  _atom_site_thermal_displace_type
  _atom_site_B_iso_or_equiv
  _atom_site_type_symbol
  H1       1.0000 0.87660  0.16221  0.31878  Biso   1.000  H
  H2       1.0000 0.12340  0.83779  0.68122  Biso   1.000  H
  H3       1.0000 0.96783  0.35806  0.45003  Biso   1.000  H
  H4       1.0000 0.03217  0.64194  0.54997  Biso   1.000  H
  H5       1.0000 0.32968  0.53140  0.47428  Biso   1.000  H
  H6       1.0000 0.67032  0.46860  0.52572  Biso   1.000  H
  H7       1.0000 0.59593  0.50425  0.36787  Biso   1.000  H
  H8       1.0000 0.40407  0.49575  0.63213  Biso   1.000  H
  H9       1.0000 0.98117  0.03096  0.18104  Biso   1.000  H
  H10      1.0000 0.01883  0.96904  0.81896  Biso   1.000  H
  H11      1.0000 0.69813  0.37353  0.22973  Biso   1.000  H
  H12      1.0000 0.30187  0.62647  0.77027  Biso   1.000  H
  H13      1.0000 0.08750  0.89597  0.04368  Biso   1.000  H
  H14      1.0000 0.91250  0.10403  0.95632  Biso   1.000  H
  H15      1.0000 0.80579  0.23930  0.09282  Biso   1.000  H
  H16      1.0000 0.19421  0.76070  0.90718  Biso   1.000  H
  H17      1.0000 0.40409  0.92435  0.27857  Biso   1.000  H
  H18      1.0000 0.59591  0.07565  0.72143  Biso   1.000  H
  H19      1.0000 0.47715  0.00098  0.42728  Biso   1.000  H
  H20      1.0000 0.52285  0.99902  0.57272  Biso   1.000  H
  H21      1.0000 0.80746  0.91165  0.49145  Biso   1.000  H
  H22      1.0000 0.19254  0.08835  0.50855  Biso   1.000  H
  H23      1.0000 0.06241  0.75381  0.40581  Biso   1.000  H
  H24      1.0000 0.93759  0.24619  0.59419  Biso   1.000  H
  H25      1.0000 0.50978  0.78684  0.14124  Biso   1.000  H
  H26      1.0000 0.49022  0.21316  0.85876  Biso   1.000  H
  H27      1.0000 0.16855  0.61651  0.26912  Biso   1.000  H
  H28      1.0000 0.83145  0.38349  0.73088  Biso   1.000  H
  H29      1.0000 0.61710  0.65278  0.00501  Biso   1.000  H
  H30      1.0000 0.38290  0.34722  0.99499  Biso   1.000  H
  H31      1.0000 0.27546  0.48123  0.13244  Biso   1.000  H
  H32      1.0000 0.72454  0.51877  0.86756  Biso   1.000  H
  C1       1.0000 0.03360  0.23650  0.32966  Biso   1.000  C
  C2       1.0000 0.96640  0.76350  0.67034  Biso   1.000  C
  C3       1.0000 0.08440  0.34530  0.40230  Biso   1.000  C
  C4       1.0000 0.91560  0.65470  0.59770  Biso   1.000  C
  C5       1.0000 0.29190  0.44420  0.41613  Biso   1.000  C
  C6       1.0000 0.70810  0.55580  0.58387  Biso   1.000  C
  C7       1.0000 0.43890  0.42930  0.35745  Biso   1.000  C
  C8       1.0000 0.56110  0.57070  0.64255  Biso   1.000  C
  C9       1.0000 0.39440  0.31670  0.28004  Biso   1.000  C
  C10      1.0000 0.60560  0.68330  0.71996  Biso   1.000  C
  C11      1.0000 0.18540  0.21590  0.26586  Biso   1.000  C
  C12      1.0000 0.81460  0.78410  0.73414  Biso   1.000  C
  C13      1.0000 0.13840  0.10530  0.19178  Biso   1.000  C
  C14      1.0000 0.86160  0.89470  0.80822  Biso   1.000  C
  C15      1.0000 0.28890  0.08430  0.12952  Biso   1.000  C
  C16      1.0000 0.71110  0.91570  0.87048  Biso   1.000  C
  C17      1.0000 0.49920  0.18570  0.14354  Biso   1.000  C
  C18      1.0000 0.50080  0.81430  0.85646  Biso   1.000  C
  C19      1.0000 0.54120  0.29840  0.21889  Biso   1.000  C
  C20      1.0000 0.45880  0.70160  0.78111  Biso   1.000  C
  C21      1.0000 0.24450  0.97070  0.05449  Biso   1.000  C
  C22      1.0000 0.75550  0.02930  0.94551  Biso   1.000  C
  C23      1.0000 0.39510  0.94900  0.99300  Biso   1.000  C
  C24      1.0000 0.60490  0.05100  0.00700  Biso   1.000  C
  C25      1.0000 0.64880  0.16450  0.08197  Biso   1.000  C
  C26      1.0000 0.35120  0.83550  0.91803  Biso   1.000  C
  C27      1.0000 0.54740  0.88710  0.30660  Biso   1.000  C
  C28      1.0000 0.45260  0.11290  0.69340  Biso   1.000  C
  C29      1.0000 0.58730  0.92830  0.38892  Biso   1.000  C
  C30      1.0000 0.41270  0.07170  0.61108  Biso   1.000  C
  C31      1.0000 0.77710  0.87820  0.42526  Biso   1.000  C
  C32      1.0000 0.22290  0.12180  0.57474  Biso   1.000  C
  C33      1.0000 0.91780  0.79040  0.37826  Biso   1.000  C
  C34      1.0000 0.08220  0.20960  0.62174  Biso   1.000  C
  C35      1.0000 0.88310  0.74330  0.29111  Biso   1.000  C
  C36      1.0000 0.11690  0.25670  0.70889  Biso   1.000  C
  C37      1.0000 0.69090  0.79410  0.25385  Biso   1.000  C
  C38      1.0000 0.30910  0.20590  0.74615  Biso   1.000  C
  C39      1.0000 0.65370  0.75000  0.16909  Biso   1.000  C
  C40      1.0000 0.34630  0.25000  0.83091  Biso   1.000  C
  C41      1.0000 0.79740  0.65920  0.11765  Biso   1.000  C
  C42      1.0000 0.20260  0.34080  0.88235  Biso   1.000  C
  C43      1.0000 0.98970  0.60910  0.15509  Biso   1.000  C
  C44      1.0000 0.01030  0.39090  0.84491  Biso   1.000  C
  C45      1.0000 0.02500  0.65380  0.24122  Biso   1.000  C
  C46      1.0000 0.97500  0.34620  0.75878  Biso   1.000  C
  C47      1.0000 0.76120  0.61570  0.03263  Biso   1.000  C
  C48      1.0000 0.23880  0.38430  0.96737  Biso   1.000  C
  C49      1.0000 0.90400  0.52550  0.98103  Biso   1.000  C
  C50      1.0000 0.09600  0.47450  0.01897  Biso   1.000  C
  C51      1.0000 0.13200  0.51870  0.10456  Biso   1.000  C
  C52      1.0000 0.86800  0.48130  0.89544  Biso   1.000  C
