data_image0
_cell_length_a       8.167
_cell_length_b       15
_cell_length_c       15.641
_cell_angle_alpha    90
_cell_angle_beta     90.43
_cell_angle_gamma    90

_symmetry_space_group_name_H-M    "P 1"
_symmetry_int_tables_number       1

loop_
  _symmetry_equiv_pos_as_xyz
  'x, y, z'

loop_
  _atom_site_label
  _atom_site_occupancy
  _atom_site_fract_x
  _atom_site_fract_y
  _atom_site_fract_z
  _atom_site_thermal_displace_type
  _atom_site_B_iso_or_equiv
  _atom_site_type_symbol
  H1       1.0000 0.04352  0.98846  0.27172  Biso   1.000  H
  H2       1.0000 0.95648  0.01154  0.72828  Biso   1.000  H
  H3       1.0000 0.95648  0.48846  0.22828  Biso   1.000  H
  H4       1.0000 0.04352  0.51154  0.77172  Biso   1.000  H
  H5       1.0000 0.58952  0.71468  0.40892  Biso   1.000  H
  H6       1.0000 0.41048  0.28532  0.59108  Biso   1.000  H
  H7       1.0000 0.41048  0.21468  0.09108  Biso   1.000  H
  H8       1.0000 0.58952  0.78532  0.90892  Biso   1.000  H
  H9       1.0000 0.06442  0.98422  0.40023  Biso   1.000  H
  H10      1.0000 0.93558  0.01578  0.59977  Biso   1.000  H
  H11      1.0000 0.93558  0.48422  0.09977  Biso   1.000  H
  H12      1.0000 0.06442  0.51578  0.90023  Biso   1.000  H
  H13      1.0000 0.58710  0.83238  0.46271  Biso   1.000  H
  H14      1.0000 0.41290  0.16762  0.53729  Biso   1.000  H
  H15      1.0000 0.41290  0.33238  0.03729  Biso   1.000  H
  H16      1.0000 0.58710  0.66762  0.96271  Biso   1.000  H
  C1       1.0000 0.05280  0.05900  0.25680  Biso   1.000  C
  C2       1.0000 0.94720  0.94100  0.74320  Biso   1.000  C
  C3       1.0000 0.94720  0.55900  0.24320  Biso   1.000  C
  C4       1.0000 0.05280  0.44100  0.75680  Biso   1.000  C
  C5       1.0000 0.58960  0.67210  0.46500  Biso   1.000  C
  C6       1.0000 0.41040  0.32790  0.53500  Biso   1.000  C
  C7       1.0000 0.41040  0.17210  0.03500  Biso   1.000  C
  C8       1.0000 0.58960  0.82790  0.96500  Biso   1.000  C
  C9       1.0000 0.71700  0.61340  0.47650  Biso   1.000  C
  C10      1.0000 0.28300  0.38660  0.52350  Biso   1.000  C
  C11      1.0000 0.28300  0.11340  0.02350  Biso   1.000  C
  C12      1.0000 0.71700  0.88660  0.97650  Biso   1.000  C
  C13      1.0000 0.71720  0.55300  0.54520  Biso   1.000  C
  C14      1.0000 0.28280  0.44700  0.45480  Biso   1.000  C
  C15      1.0000 0.28280  0.05300  0.95480  Biso   1.000  C
  C16      1.0000 0.71720  0.94700  0.04520  Biso   1.000  C
  C17      1.0000 0.58390  0.54890  0.59690  Biso   1.000  C
  C18      1.0000 0.41610  0.45110  0.40310  Biso   1.000  C
  C19      1.0000 0.41610  0.04890  0.90310  Biso   1.000  C
  C20      1.0000 0.58390  0.95110  0.09690  Biso   1.000  C
  C21      1.0000 0.30400  0.59440  0.63490  Biso   1.000  C
  C22      1.0000 0.69600  0.40560  0.36510  Biso   1.000  C
  C23      1.0000 0.69600  0.09440  0.86510  Biso   1.000  C
  C24      1.0000 0.30400  0.90560  0.13490  Biso   1.000  C
  C25      1.0000 0.16990  0.64360  0.61920  Biso   1.000  C
  C26      1.0000 0.83010  0.35640  0.38080  Biso   1.000  C
  C27      1.0000 0.83010  0.14360  0.88080  Biso   1.000  C
  C28      1.0000 0.16990  0.85640  0.11920  Biso   1.000  C
  C29      1.0000 0.02970  0.76960  0.54770  Biso   1.000  C
  C30      1.0000 0.97030  0.23040  0.45230  Biso   1.000  C
  C31      1.0000 0.97030  0.26960  0.95230  Biso   1.000  C
  C32      1.0000 0.02970  0.73040  0.04770  Biso   1.000  C
  C33      1.0000 0.02910  0.84080  0.49490  Biso   1.000  C
  C34      1.0000 0.97090  0.15920  0.50510  Biso   1.000  C
  C35      1.0000 0.97090  0.34080  0.00510  Biso   1.000  C
  C36      1.0000 0.02910  0.65920  0.99490  Biso   1.000  C
  C37      1.0000 0.17900  0.94760  0.40640  Biso   1.000  C
  C38      1.0000 0.82100  0.05240  0.59360  Biso   1.000  C
  C39      1.0000 0.82100  0.44760  0.09360  Biso   1.000  C
  C40      1.0000 0.17900  0.55240  0.90640  Biso   1.000  C
  C41      1.0000 0.19480  0.10750  0.28040  Biso   1.000  C
  C42      1.0000 0.80520  0.89250  0.71960  Biso   1.000  C
  C43      1.0000 0.80520  0.60750  0.21960  Biso   1.000  C
  C44      1.0000 0.19480  0.39250  0.78040  Biso   1.000  C
  C45      1.0000 0.92700  0.09980  0.21160  Biso   1.000  C
  C46      1.0000 0.07300  0.90020  0.78840  Biso   1.000  C
  C47      1.0000 0.07300  0.59980  0.28840  Biso   1.000  C
  C48      1.0000 0.92700  0.40020  0.71160  Biso   1.000  C
  C49      1.0000 0.20960  0.19690  0.25120  Biso   1.000  C
  C50      1.0000 0.79040  0.80310  0.74880  Biso   1.000  C
  C51      1.0000 0.79040  0.69690  0.24880  Biso   1.000  C
  C52      1.0000 0.20960  0.30310  0.75120  Biso   1.000  C
  C53      1.0000 0.33190  0.06770  0.32630  Biso   1.000  C
  C54      1.0000 0.66810  0.93230  0.67370  Biso   1.000  C
  C55      1.0000 0.66810  0.56770  0.17370  Biso   1.000  C
  C56      1.0000 0.33190  0.43230  0.82630  Biso   1.000  C
  C57      1.0000 0.48200  0.11240  0.32450  Biso   1.000  C
  C58      1.0000 0.51800  0.88760  0.67550  Biso   1.000  C
  C59      1.0000 0.51800  0.61240  0.17550  Biso   1.000  C
  C60      1.0000 0.48200  0.38760  0.82450  Biso   1.000  C
  C61      1.0000 0.32360  0.98450  0.37410  Biso   1.000  C
  C62      1.0000 0.67640  0.01550  0.62590  Biso   1.000  C
  C63      1.0000 0.67640  0.48450  0.12590  Biso   1.000  C
  C64      1.0000 0.32360  0.51550  0.87410  Biso   1.000  C
  C65      1.0000 0.47280  0.94160  0.39920  Biso   1.000  C
  C66      1.0000 0.52720  0.05840  0.60080  Biso   1.000  C
  C67      1.0000 0.52720  0.44160  0.10080  Biso   1.000  C
  C68      1.0000 0.47280  0.55840  0.89920  Biso   1.000  C
  C69      1.0000 0.32470  0.81860  0.46710  Biso   1.000  C
  C70      1.0000 0.67530  0.18140  0.53290  Biso   1.000  C
  C71      1.0000 0.67530  0.31860  0.03290  Biso   1.000  C
  C72      1.0000 0.32470  0.68140  0.96710  Biso   1.000  C
  C73      1.0000 0.17680  0.86900  0.45370  Biso   1.000  C
  C74      1.0000 0.82320  0.13100  0.54630  Biso   1.000  C
  C75      1.0000 0.82320  0.36900  0.04630  Biso   1.000  C
  C76      1.0000 0.17680  0.63100  0.95370  Biso   1.000  C
  C77      1.0000 0.31800  0.73530  0.51480  Biso   1.000  C
  C78      1.0000 0.68200  0.26470  0.48520  Biso   1.000  C
  C79      1.0000 0.68200  0.23530  0.98520  Biso   1.000  C
  C80      1.0000 0.31800  0.76470  0.01480  Biso   1.000  C
  C81      1.0000 0.17410  0.71630  0.55950  Biso   1.000  C
  C82      1.0000 0.82590  0.28370  0.44050  Biso   1.000  C
  C83      1.0000 0.82590  0.21630  0.94050  Biso   1.000  C
  C84      1.0000 0.17410  0.78370  0.05950  Biso   1.000  C
  C85      1.0000 0.45380  0.67340  0.52140  Biso   1.000  C
  C86      1.0000 0.54620  0.32660  0.47860  Biso   1.000  C
  C87      1.0000 0.54620  0.17340  0.97860  Biso   1.000  C
  C88      1.0000 0.45380  0.82660  0.02140  Biso   1.000  C
  C89      1.0000 0.93810  0.19040  0.18930  Biso   1.000  C
  C90      1.0000 0.06190  0.80960  0.81070  Biso   1.000  C
  C91      1.0000 0.06190  0.69040  0.31070  Biso   1.000  C
  C92      1.0000 0.93810  0.30960  0.68930  Biso   1.000  C
  C93      1.0000 0.44850  0.60640  0.58580  Biso   1.000  C
  C94      1.0000 0.55150  0.39360  0.41420  Biso   1.000  C
  C95      1.0000 0.55150  0.10640  0.91420  Biso   1.000  C
  C96      1.0000 0.44850  0.89360  0.08580  Biso   1.000  C
  C97      1.0000 0.07730  0.23690  0.20820  Biso   1.000  C
  C98      1.0000 0.92270  0.76310  0.79180  Biso   1.000  C
  C99      1.0000 0.92270  0.73690  0.29180  Biso   1.000  C
  C100     1.0000 0.07730  0.26310  0.70820  Biso   1.000  C
  C101     1.0000 0.36000  0.24300  0.26070  Biso   1.000  C
  C102     1.0000 0.64000  0.75700  0.73930  Biso   1.000  C
  C103     1.0000 0.64000  0.74300  0.23930  Biso   1.000  C
  C104     1.0000 0.36000  0.25700  0.76070  Biso   1.000  C
  C105     1.0000 0.49350  0.20100  0.29200  Biso   1.000  C
  C106     1.0000 0.50650  0.79900  0.70800  Biso   1.000  C
  C107     1.0000 0.50650  0.70100  0.20800  Biso   1.000  C
  C108     1.0000 0.49350  0.29900  0.79200  Biso   1.000  C
  C109     1.0000 0.62880  0.06990  0.35470  Biso   1.000  C
  C110     1.0000 0.37120  0.93010  0.64530  Biso   1.000  C
  C111     1.0000 0.37120  0.56990  0.14530  Biso   1.000  C
  C112     1.0000 0.62880  0.43010  0.85470  Biso   1.000  C
  C113     1.0000 0.62560  0.98620  0.38630  Biso   1.000  C
  C114     1.0000 0.37440  0.01380  0.61370  Biso   1.000  C
  C115     1.0000 0.37440  0.48620  0.11370  Biso   1.000  C
  C116     1.0000 0.62560  0.51380  0.88630  Biso   1.000  C
  C117     1.0000 0.47000  0.85980  0.44240  Biso   1.000  C
  C118     1.0000 0.53000  0.14020  0.55760  Biso   1.000  C
  C119     1.0000 0.53000  0.35980  0.05760  Biso   1.000  C
  C120     1.0000 0.47000  0.64020  0.94240  Biso   1.000  C
  H17      1.0000 0.08974  0.30607  0.18755  Biso   1.000  H
  H18      1.0000 0.36726  0.31209  0.23922  Biso   1.000  H
  H19      1.0000 0.74314  0.10672  0.35020  Biso   1.000  H
  H20      1.0000 0.61218  0.23404  0.29415  Biso   1.000  H
  H21      1.0000 0.73781  0.95294  0.40686  Biso   1.000  H
  H22      1.0000 0.05575  0.63174  0.65308  Biso   1.000  H
  H23      1.0000 0.30372  0.54159  0.68266  Biso   1.000  H
  H24      1.0000 0.57599  0.49865  0.64727  Biso   1.000  H
  H25      1.0000 0.81800  0.61326  0.43143  Biso   1.000  H
  H26      1.0000 0.81953  0.50716  0.55374  Biso   1.000  H
  H27      1.0000 0.81932  0.06141  0.19332  Biso   1.000  H
  H28      1.0000 0.83724  0.22227  0.15522  Biso   1.000  H
  H29      1.0000 0.91805  0.88000  0.48523  Biso   1.000  H
  H30      1.0000 0.91949  0.75019  0.58181  Biso   1.000  H
  H31      1.0000 0.08195  0.12000  0.51477  Biso   1.000  H
  H32      1.0000 0.08051  0.24981  0.41819  Biso   1.000  H
  H33      1.0000 0.18068  0.93859  0.80668  Biso   1.000  H
  H34      1.0000 0.16276  0.77773  0.84478  Biso   1.000  H
  H35      1.0000 0.26219  0.04706  0.59314  Biso   1.000  H
  H36      1.0000 0.94425  0.36826  0.34692  Biso   1.000  H
  H37      1.0000 0.18200  0.38674  0.56857  Biso   1.000  H
  H38      1.0000 0.42401  0.50135  0.35273  Biso   1.000  H
  H39      1.0000 0.69628  0.45841  0.31734  Biso   1.000  H
  H40      1.0000 0.18047  0.49284  0.44626  Biso   1.000  H
  H41      1.0000 0.63274  0.68791  0.76078  Biso   1.000  H
  H42      1.0000 0.91026  0.69393  0.81245  Biso   1.000  H
  H43      1.0000 0.38782  0.76596  0.70585  Biso   1.000  H
  H44      1.0000 0.25686  0.89328  0.64980  Biso   1.000  H
  H45      1.0000 0.18068  0.56141  0.30668  Biso   1.000  H
  H46      1.0000 0.16276  0.72227  0.34478  Biso   1.000  H
  H47      1.0000 0.08195  0.38000  0.01477  Biso   1.000  H
  H48      1.0000 0.08051  0.25019  0.91819  Biso   1.000  H
  H49      1.0000 0.63274  0.81209  0.26078  Biso   1.000  H
  H50      1.0000 0.91026  0.80607  0.31245  Biso   1.000  H
  H51      1.0000 0.25686  0.60672  0.14980  Biso   1.000  H
  H52      1.0000 0.38782  0.73404  0.20585  Biso   1.000  H
  H53      1.0000 0.26219  0.45294  0.09314  Biso   1.000  H
  H54      1.0000 0.18200  0.11326  0.06857  Biso   1.000  H
  H55      1.0000 0.94425  0.13174  0.84692  Biso   1.000  H
  H56      1.0000 0.42401  0.99865  0.85273  Biso   1.000  H
  H57      1.0000 0.69628  0.04159  0.81734  Biso   1.000  H
  H58      1.0000 0.18047  0.00716  0.94626  Biso   1.000  H
  H59      1.0000 0.05575  0.86826  0.15308  Biso   1.000  H
  H60      1.0000 0.30372  0.95841  0.18266  Biso   1.000  H
  H61      1.0000 0.57599  0.00135  0.14727  Biso   1.000  H
  H62      1.0000 0.81953  0.99284  0.05374  Biso   1.000  H
  H63      1.0000 0.08974  0.19393  0.68755  Biso   1.000  H
  H64      1.0000 0.36726  0.18791  0.73922  Biso   1.000  H
  H65      1.0000 0.61218  0.26596  0.79415  Biso   1.000  H
  H66      1.0000 0.74314  0.39328  0.85020  Biso   1.000  H
  H67      1.0000 0.73781  0.54706  0.90686  Biso   1.000  H
  H68      1.0000 0.81800  0.88674  0.93143  Biso   1.000  H
  H69      1.0000 0.91949  0.74981  0.08181  Biso   1.000  H
  H70      1.0000 0.81932  0.43859  0.69332  Biso   1.000  H
  H71      1.0000 0.83724  0.27773  0.65522  Biso   1.000  H
  H72      1.0000 0.91805  0.62000  0.98523  Biso   1.000  H
