data_image0
_cell_length_a       5.0623
_cell_length_b       15.7245
_cell_length_c       18.2966
_cell_angle_alpha    104.557
_cell_angle_beta     90
_cell_angle_gamma    90

_symmetry_space_group_name_H-M    "P 1"
_symmetry_int_tables_number       1

loop_
  _symmetry_equiv_pos_as_xyz
  'x, y, z'

loop_
  _atom_site_label
  _atom_site_occupancy
  _atom_site_fract_x
  _atom_site_fract_y
  _atom_site_fract_z
  _atom_site_thermal_displace_type
  _atom_site_B_iso_or_equiv
  _atom_site_type_symbol
  H1       1.0000 0.77968  0.76420  0.34086  Biso   1.000  H
  H2       1.0000 0.27968  0.23580  0.65914  Biso   1.000  H
  H3       1.0000 0.87440  0.66393  0.21542  Biso   1.000  H
  H4       1.0000 0.37440  0.33607  0.78458  Biso   1.000  H
  H5       1.0000 0.38662  0.94049  0.30156  Biso   1.000  H
  H6       1.0000 0.88662  0.05951  0.69844  Biso   1.000  H
  H7       1.0000 0.04909  0.90023  0.38678  Biso   1.000  H
  H8       1.0000 0.54909  0.09977  0.61322  Biso   1.000  H
  H9       1.0000 0.11203  0.63033  0.09822  Biso   1.000  H
  H10      1.0000 0.61203  0.36967  0.90178  Biso   1.000  H
  H11      1.0000 0.62018  0.90800  0.18391  Biso   1.000  H
  H12      1.0000 0.12018  0.09200  0.81609  Biso   1.000  H
  H13      1.0000 0.17357  0.55866  0.00607  Biso   1.000  H
  H14      1.0000 0.67357  0.44134  0.99393  Biso   1.000  H
  H15      1.0000 0.25544  0.46207  0.88161  Biso   1.000  H
  H16      1.0000 0.75544  0.53793  0.11839  Biso   1.000  H
  H17      1.0000 0.60230  0.50148  0.79671  Biso   1.000  H
  H18      1.0000 0.10230  0.49852  0.20329  Biso   1.000  H
  H19      1.0000 0.85511  0.63658  0.83933  Biso   1.000  H
  H20      1.0000 0.35511  0.36342  0.16067  Biso   1.000  H
  H21      1.0000 0.03681  0.73816  0.86970  Biso   1.000  H
  H22      1.0000 0.53681  0.26184  0.13030  Biso   1.000  H
  H23      1.0000 0.28546  0.87507  0.91334  Biso   1.000  H
  H24      1.0000 0.78546  0.12493  0.08666  Biso   1.000  H
  H25      1.0000 0.19496  0.97598  0.03989  Biso   1.000  H
  H26      1.0000 0.69496  0.02402  0.96011  Biso   1.000  H
  H27      1.0000 0.86312  0.93549  0.12298  Biso   1.000  H
  H28      1.0000 0.36312  0.06451  0.87702  Biso   1.000  H
  H29      1.0000 0.05840  0.67528  0.41531  Biso   1.000  H
  H30      1.0000 0.55840  0.32472  0.58469  Biso   1.000  H
  H31      1.0000 0.98667  0.54280  0.46465  Biso   1.000  H
  H32      1.0000 0.48667  0.45720  0.53535  Biso   1.000  H
  H33      1.0000 0.65976  0.53629  0.26470  Biso   1.000  H
  H34      1.0000 0.15976  0.46371  0.73530  Biso   1.000  H
  H35      1.0000 0.39549  0.67181  0.31555  Biso   1.000  H
  H36      1.0000 0.89549  0.32819  0.68445  Biso   1.000  H
  H37      1.0000 0.08982  0.39360  0.46204  Biso   1.000  H
  H38      1.0000 0.58982  0.60640  0.53796  Biso   1.000  H
  H39      1.0000 0.76539  0.38944  0.26361  Biso   1.000  H
  H40      1.0000 0.26539  0.61056  0.73639  Biso   1.000  H
  H41      1.0000 0.03848  0.29444  0.49551  Biso   1.000  H
  H42      1.0000 0.53848  0.70556  0.50449  Biso   1.000  H
  H43      1.0000 0.97355  0.16340  0.54228  Biso   1.000  H
  H44      1.0000 0.47355  0.83660  0.45772  Biso   1.000  H
  H45      1.0000 0.24193  0.02849  0.48982  Biso   1.000  H
  H46      1.0000 0.74193  0.97151  0.51018  Biso   1.000  H
  H47      1.0000 0.57715  0.02713  0.39264  Biso   1.000  H
  H48      1.0000 0.07715  0.97287  0.60736  Biso   1.000  H
  H49      1.0000 0.81935  0.02571  0.31960  Biso   1.000  H
  H50      1.0000 0.31935  0.97429  0.68040  Biso   1.000  H
  H51      1.0000 0.14770  0.02782  0.22176  Biso   1.000  H
  H52      1.0000 0.64770  0.97218  0.77824  Biso   1.000  H
  H53      1.0000 0.21035  0.16147  0.17377  Biso   1.000  H
  H54      1.0000 0.71035  0.83853  0.82623  Biso   1.000  H
  H55      1.0000 0.94518  0.29306  0.22527  Biso   1.000  H
  H56      1.0000 0.44518  0.70694  0.77473  Biso   1.000  H
  C1       1.0000 0.93237  0.78100  0.30500  Biso   1.000  C
  C2       1.0000 0.43237  0.21900  0.69500  Biso   1.000  C
  C3       1.0000 0.98900  0.72400  0.23500  Biso   1.000  C
  C4       1.0000 0.48900  0.27600  0.76500  Biso   1.000  C
  C5       1.0000 0.27400  0.88000  0.28300  Biso   1.000  C
  C6       1.0000 0.77400  0.12000  0.71700  Biso   1.000  C
  C7       1.0000 0.08500  0.85700  0.33100  Biso   1.000  C
  C8       1.0000 0.58500  0.14300  0.66900  Biso   1.000  C
  C9       1.0000 0.32300  0.82400  0.21100  Biso   1.000  C
  C10      1.0000 0.82300  0.17600  0.78900  Biso   1.000  C
  C11      1.0000 0.17900  0.74600  0.18700  Biso   1.000  C
  C12      1.0000 0.67900  0.25400  0.81300  Biso   1.000  C
  C13      1.0000 0.22800  0.69000  0.11500  Biso   1.000  C
  C14      1.0000 0.72800  0.31000  0.88500  Biso   1.000  C
  C15      1.0000 0.51300  0.84700  0.16300  Biso   1.000  C
  C16      1.0000 0.01300  0.15300  0.83700  Biso   1.000  C
  C17      1.0000 0.56200  0.79100  0.09200  Biso   1.000  C
  C18      1.0000 0.06200  0.20900  0.90800  Biso   1.000  C
  C19      1.0000 0.41900  0.71200  0.06700  Biso   1.000  C
  C20      1.0000 0.91900  0.28800  0.93300  Biso   1.000  C
  C21      1.0000 0.65800  0.67900  0.94800  Biso   1.000  C
  C22      1.0000 0.15800  0.32100  0.05200  Biso   1.000  C
  C23      1.0000 0.46700  0.65600  0.99500  Biso   1.000  C
  C24      1.0000 0.96700  0.34400  0.00500  Biso   1.000  C
  C25      1.0000 0.32300  0.57800  0.97100  Biso   1.000  C
  C26      1.0000 0.82300  0.42200  0.02900  Biso   1.000  C
  C27      1.0000 0.37200  0.52200  0.90000  Biso   1.000  C
  C28      1.0000 0.87200  0.47800  0.10000  Biso   1.000  C
  C29      1.0000 0.56100  0.54500  0.85200  Biso   1.000  C
  C30      1.0000 0.06100  0.45500  0.14800  Biso   1.000  C
  C31      1.0000 0.70600  0.62200  0.87700  Biso   1.000  C
  C32      1.0000 0.20600  0.37800  0.12300  Biso   1.000  C
  C33      1.0000 0.75200  0.81300  0.04400  Biso   1.000  C
  C34      1.0000 0.25200  0.18700  0.95600  Biso   1.000  C
  C35      1.0000 0.80100  0.75700  0.97200  Biso   1.000  C
  C36      1.0000 0.30100  0.24300  0.02800  Biso   1.000  C
  C37      1.0000 0.99100  0.78000  0.92500  Biso   1.000  C
  C38      1.0000 0.49100  0.22000  0.07500  Biso   1.000  C
  C39      1.0000 0.13600  0.85800  0.95000  Biso   1.000  C
  C40      1.0000 0.63600  0.14200  0.05000  Biso   1.000  C
  C41      1.0000 0.08400  0.91500  0.02100  Biso   1.000  C
  C42      1.0000 0.58400  0.08500  0.97900  Biso   1.000  C
  C43      1.0000 0.89600  0.89100  0.06800  Biso   1.000  C
  C44      1.0000 0.39600  0.10900  0.93200  Biso   1.000  C
  C45      1.0000 0.17400  0.61600  0.39300  Biso   1.000  C
  C46      1.0000 0.67400  0.38400  0.60700  Biso   1.000  C
  C47      1.0000 0.13300  0.54200  0.42100  Biso   1.000  C
  C48      1.0000 0.63300  0.45800  0.57900  Biso   1.000  C
  C49      1.0000 0.51100  0.53800  0.30800  Biso   1.000  C
  C50      1.0000 0.01100  0.46200  0.69200  Biso   1.000  C
  C51      1.0000 0.36400  0.61400  0.33700  Biso   1.000  C
  C52      1.0000 0.86400  0.38600  0.66300  Biso   1.000  C
  C53      1.0000 0.47000  0.46300  0.33500  Biso   1.000  C
  C54      1.0000 0.97000  0.53700  0.66500  Biso   1.000  C
  C55      1.0000 0.28100  0.46500  0.39100  Biso   1.000  C
  C56      1.0000 0.78100  0.53500  0.60900  Biso   1.000  C
  C57      1.0000 0.24000  0.39000  0.41900  Biso   1.000  C
  C58      1.0000 0.74000  0.61000  0.58100  Biso   1.000  C
  C59      1.0000 0.61800  0.38700  0.30600  Biso   1.000  C
  C60      1.0000 0.11800  0.61300  0.69400  Biso   1.000  C
  C61      1.0000 0.57700  0.31200  0.33300  Biso   1.000  C
  C62      1.0000 0.07700  0.68800  0.66700  Biso   1.000  C
  C63      1.0000 0.38800  0.31300  0.38900  Biso   1.000  C
  C64      1.0000 0.88800  0.68700  0.61100  Biso   1.000  C
  C65      1.0000 0.49800  0.16100  0.38600  Biso   1.000  C
  C66      1.0000 0.99800  0.83900  0.61400  Biso   1.000  C
  C67      1.0000 0.34900  0.23700  0.41600  Biso   1.000  C
  C68      1.0000 0.84900  0.76300  0.58400  Biso   1.000  C
  C69      1.0000 0.15900  0.23700  0.47200  Biso   1.000  C
  C70      1.0000 0.65900  0.76300  0.52800  Biso   1.000  C
  C71      1.0000 0.12200  0.16300  0.49900  Biso   1.000  C
  C72      1.0000 0.62200  0.83700  0.50100  Biso   1.000  C
  C73      1.0000 0.27100  0.08700  0.46900  Biso   1.000  C
  C74      1.0000 0.77100  0.91300  0.53100  Biso   1.000  C
  C75      1.0000 0.46000  0.08600  0.41300  Biso   1.000  C
  C76      1.0000 0.96000  0.91400  0.58700  Biso   1.000  C
  C77      1.0000 0.72600  0.23600  0.30300  Biso   1.000  C
  C78      1.0000 0.22600  0.76400  0.69700  Biso   1.000  C
  C79      1.0000 0.68700  0.16100  0.33000  Biso   1.000  C
  C80      1.0000 0.18700  0.83900  0.67000  Biso   1.000  C
  C81      1.0000 0.83800  0.08500  0.30000  Biso   1.000  C
  C82      1.0000 0.33800  0.91500  0.70000  Biso   1.000  C
  C83      1.0000 0.02700  0.08600  0.24400  Biso   1.000  C
  C84      1.0000 0.52700  0.91400  0.75600  Biso   1.000  C
  C85      1.0000 0.06300  0.16100  0.21700  Biso   1.000  C
  C86      1.0000 0.56300  0.83900  0.78300  Biso   1.000  C
  C87      1.0000 0.91000  0.23600  0.24700  Biso   1.000  C
  C88      1.0000 0.41000  0.76400  0.75300  Biso   1.000  C
