data_image0
_cell_length_a       5.815
_cell_length_b       14.178
_cell_length_c       17.498
_cell_angle_alpha    90
_cell_angle_beta     94.41
_cell_angle_gamma    90

_symmetry_space_group_name_H-M    "P 1"
_symmetry_int_tables_number       1

loop_
  _symmetry_equiv_pos_as_xyz
  'x, y, z'

loop_
  _atom_site_label
  _atom_site_occupancy
  _atom_site_fract_x
  _atom_site_fract_y
  _atom_site_fract_z
  _atom_site_thermal_displace_type
  _atom_site_B_iso_or_equiv
  _atom_site_type_symbol
  H1       1.0000 0.04306  0.48617  0.12736  Biso   1.000  H
  H2       1.0000 0.95694  0.51383  0.87264  Biso   1.000  H
  H3       1.0000 0.95694  0.98617  0.37264  Biso   1.000  H
  H4       1.0000 0.04306  0.01383  0.62736  Biso   1.000  H
  H5       1.0000 0.09322  0.57754  0.01193  Biso   1.000  H
  H6       1.0000 0.90678  0.42246  0.98807  Biso   1.000  H
  H7       1.0000 0.90678  0.07754  0.48807  Biso   1.000  H
  H8       1.0000 0.09322  0.92246  0.51193  Biso   1.000  H
  H9       1.0000 0.46251  0.65874  0.99440  Biso   1.000  H
  H10      1.0000 0.53749  0.34126  0.00560  Biso   1.000  H
  H11      1.0000 0.53749  0.15874  0.50560  Biso   1.000  H
  H12      1.0000 0.46251  0.84126  0.49440  Biso   1.000  H
  H13      1.0000 0.76918  0.65891  0.10091  Biso   1.000  H
  H14      1.0000 0.23082  0.34109  0.89909  Biso   1.000  H
  H15      1.0000 0.23082  0.15891  0.39909  Biso   1.000  H
  H16      1.0000 0.76918  0.84109  0.60091  Biso   1.000  H
  H17      1.0000 0.90389  0.62151  0.23030  Biso   1.000  H
  H18      1.0000 0.09611  0.37849  0.76970  Biso   1.000  H
  H19      1.0000 0.09611  0.12151  0.26970  Biso   1.000  H
  H20      1.0000 0.90389  0.87849  0.73030  Biso   1.000  H
  H21      1.0000 0.82175  0.56014  0.35608  Biso   1.000  H
  H22      1.0000 0.17825  0.43986  0.64392  Biso   1.000  H
  H23      1.0000 0.17825  0.06014  0.14392  Biso   1.000  H
  H24      1.0000 0.82175  0.93986  0.85608  Biso   1.000  H
  H25      1.0000 0.57107  0.48492  0.43874  Biso   1.000  H
  H26      1.0000 0.42893  0.51508  0.56126  Biso   1.000  H
  H27      1.0000 0.42893  0.98492  0.06126  Biso   1.000  H
  H28      1.0000 0.57107  0.01508  0.93874  Biso   1.000  H
  H29      1.0000 0.21594  0.39678  0.45924  Biso   1.000  H
  H30      1.0000 0.78406  0.60322  0.54076  Biso   1.000  H
  H31      1.0000 0.78406  0.89678  0.04076  Biso   1.000  H
  H32      1.0000 0.21594  0.10322  0.95924  Biso   1.000  H
  H33      1.0000 0.87534  0.31053  0.40836  Biso   1.000  H
  H34      1.0000 0.12466  0.68947  0.59164  Biso   1.000  H
  H35      1.0000 0.12466  0.81053  0.09164  Biso   1.000  H
  H36      1.0000 0.87534  0.18947  0.90836  Biso   1.000  H
  H37      1.0000 0.64551  0.23880  0.30172  Biso   1.000  H
  H38      1.0000 0.35449  0.76120  0.69828  Biso   1.000  H
  H39      1.0000 0.35449  0.73880  0.19828  Biso   1.000  H
  H40      1.0000 0.64551  0.26120  0.80172  Biso   1.000  H
  H41      1.0000 0.61897  0.18360  0.16742  Biso   1.000  H
  H42      1.0000 0.38103  0.81640  0.83258  Biso   1.000  H
  H43      1.0000 0.38103  0.68360  0.33258  Biso   1.000  H
  H44      1.0000 0.61897  0.31640  0.66742  Biso   1.000  H
  H45      1.0000 0.78825  0.16666  0.04437  Biso   1.000  H
  H46      1.0000 0.21175  0.83334  0.95563  Biso   1.000  H
  H47      1.0000 0.21175  0.66666  0.45563  Biso   1.000  H
  H48      1.0000 0.78825  0.33334  0.54437  Biso   1.000  H
  H49      1.0000 0.16196  0.24661  0.02403  Biso   1.000  H
  H50      1.0000 0.83804  0.75339  0.97597  Biso   1.000  H
  H51      1.0000 0.83804  0.74661  0.47597  Biso   1.000  H
  H52      1.0000 0.16196  0.25339  0.52403  Biso   1.000  H
  H53      1.0000 0.34143  0.34933  0.12306  Biso   1.000  H
  H54      1.0000 0.65857  0.65067  0.87694  Biso   1.000  H
  H55      1.0000 0.65857  0.84933  0.37694  Biso   1.000  H
  H56      1.0000 0.34143  0.15067  0.62306  Biso   1.000  H
  C1       1.0000 0.20710  0.52100  0.12130  Biso   1.000  C
  C2       1.0000 0.79290  0.47900  0.87870  Biso   1.000  C
  C3       1.0000 0.79290  0.02100  0.37870  Biso   1.000  C
  C4       1.0000 0.20710  0.97900  0.62130  Biso   1.000  C
  C5       1.0000 0.23460  0.57260  0.05630  Biso   1.000  C
  C6       1.0000 0.76540  0.42740  0.94370  Biso   1.000  C
  C7       1.0000 0.76540  0.07260  0.44370  Biso   1.000  C
  C8       1.0000 0.23460  0.92740  0.55630  Biso   1.000  C
  C9       1.0000 0.44170  0.61960  0.04700  Biso   1.000  C
  C10      1.0000 0.55830  0.38040  0.95300  Biso   1.000  C
  C11      1.0000 0.55830  0.11960  0.45300  Biso   1.000  C
  C12      1.0000 0.44170  0.88040  0.54700  Biso   1.000  C
  C13      1.0000 0.61040  0.61890  0.10500  Biso   1.000  C
  C14      1.0000 0.38960  0.38110  0.89500  Biso   1.000  C
  C15      1.0000 0.38960  0.11890  0.39500  Biso   1.000  C
  C16      1.0000 0.61040  0.88110  0.60500  Biso   1.000  C
  C17      1.0000 0.58390  0.56950  0.17370  Biso   1.000  C
  C18      1.0000 0.41610  0.43050  0.82630  Biso   1.000  C
  C19      1.0000 0.41610  0.06950  0.32630  Biso   1.000  C
  C20      1.0000 0.58390  0.93050  0.67370  Biso   1.000  C
  C21      1.0000 0.74870  0.58060  0.23750  Biso   1.000  C
  C22      1.0000 0.25130  0.41940  0.76250  Biso   1.000  C
  C23      1.0000 0.25130  0.08060  0.26250  Biso   1.000  C
  C24      1.0000 0.74870  0.91940  0.73750  Biso   1.000  C
  C25      1.0000 0.70400  0.54620  0.30580  Biso   1.000  C
  C26      1.0000 0.29600  0.45380  0.69420  Biso   1.000  C
  C27      1.0000 0.29600  0.04620  0.19420  Biso   1.000  C
  C28      1.0000 0.70400  0.95380  0.80580  Biso   1.000  C
  C29      1.0000 0.50640  0.48980  0.31610  Biso   1.000  C
  C30      1.0000 0.49360  0.51020  0.68390  Biso   1.000  C
  C31      1.0000 0.49360  0.98980  0.18390  Biso   1.000  C
  C32      1.0000 0.50640  0.01020  0.81610  Biso   1.000  C
  C33      1.0000 0.45450  0.46210  0.39040  Biso   1.000  C
  C34      1.0000 0.54550  0.53790  0.60960  Biso   1.000  C
  C35      1.0000 0.54550  0.96210  0.10960  Biso   1.000  C
  C36      1.0000 0.45450  0.03790  0.89040  Biso   1.000  C
  C37      1.0000 0.26390  0.41260  0.40150  Biso   1.000  C
  C38      1.0000 0.73610  0.58740  0.59850  Biso   1.000  C
  C39      1.0000 0.73610  0.91260  0.09850  Biso   1.000  C
  C40      1.0000 0.26390  0.08740  0.90150  Biso   1.000  C
  C41      1.0000 0.12290  0.37450  0.33810  Biso   1.000  C
  C42      1.0000 0.87710  0.62550  0.66190  Biso   1.000  C
  C43      1.0000 0.87710  0.87450  0.16190  Biso   1.000  C
  C44      1.0000 0.12290  0.12550  0.83810  Biso   1.000  C
  C45      1.0000 0.92630  0.31850  0.35000  Biso   1.000  C
  C46      1.0000 0.07370  0.68150  0.65000  Biso   1.000  C
  C47      1.0000 0.07370  0.81850  0.15000  Biso   1.000  C
  C48      1.0000 0.92630  0.18150  0.85000  Biso   1.000  C
  C49      1.0000 0.80140  0.27830  0.29200  Biso   1.000  C
  C50      1.0000 0.19860  0.72170  0.70800  Biso   1.000  C
  C51      1.0000 0.19860  0.77830  0.20800  Biso   1.000  C
  C52      1.0000 0.80140  0.22170  0.79200  Biso   1.000  C
  C53      1.0000 0.87860  0.27930  0.21580  Biso   1.000  C
  C54      1.0000 0.12140  0.72070  0.78420  Biso   1.000  C
  C55      1.0000 0.12140  0.77930  0.28420  Biso   1.000  C
  C56      1.0000 0.87860  0.22070  0.71580  Biso   1.000  C
  C57      1.0000 0.77500  0.22220  0.15620  Biso   1.000  C
  C58      1.0000 0.22500  0.77780  0.84380  Biso   1.000  C
  C59      1.0000 0.22500  0.72220  0.34380  Biso   1.000  C
  C60      1.0000 0.77500  0.27780  0.65620  Biso   1.000  C
  C61      1.0000 0.87040  0.21230  0.08870  Biso   1.000  C
  C62      1.0000 0.12960  0.78770  0.91130  Biso   1.000  C
  C63      1.0000 0.12960  0.71230  0.41130  Biso   1.000  C
  C64      1.0000 0.87040  0.28770  0.58870  Biso   1.000  C
  C65      1.0000 0.07770  0.25770  0.07680  Biso   1.000  C
  C66      1.0000 0.92230  0.74230  0.92320  Biso   1.000  C
  C67      1.0000 0.92230  0.75770  0.42320  Biso   1.000  C
  C68      1.0000 0.07770  0.24230  0.57680  Biso   1.000  C
  C69      1.0000 0.17780  0.31580  0.13240  Biso   1.000  C
  C70      1.0000 0.82220  0.68420  0.86760  Biso   1.000  C
  C71      1.0000 0.82220  0.81580  0.36760  Biso   1.000  C
  C72      1.0000 0.17780  0.18420  0.63240  Biso   1.000  C
  C73      1.0000 0.07800  0.33210  0.20210  Biso   1.000  C
  C74      1.0000 0.92200  0.66790  0.79790  Biso   1.000  C
  C75      1.0000 0.92200  0.83210  0.29790  Biso   1.000  C
  C76      1.0000 0.07800  0.16790  0.70210  Biso   1.000  C
  C77      1.0000 0.18480  0.39200  0.26240  Biso   1.000  C
  C78      1.0000 0.81520  0.60800  0.73760  Biso   1.000  C
  C79      1.0000 0.81520  0.89200  0.23760  Biso   1.000  C
  C80      1.0000 0.18480  0.10800  0.76240  Biso   1.000  C
  C81      1.0000 0.35750  0.46300  0.25200  Biso   1.000  C
  C82      1.0000 0.64250  0.53700  0.74800  Biso   1.000  C
  C83      1.0000 0.64250  0.96300  0.24800  Biso   1.000  C
  C84      1.0000 0.35750  0.03700  0.75200  Biso   1.000  C
  C85      1.0000 0.38310  0.51450  0.18120  Biso   1.000  C
  C86      1.0000 0.61690  0.48550  0.81880  Biso   1.000  C
  C87      1.0000 0.61690  0.01450  0.31880  Biso   1.000  C
  C88      1.0000 0.38310  0.98550  0.68120  Biso   1.000  C
