data_image0
_cell_length_a       12.337
_cell_length_b       12.3897
_cell_length_c       17.1641
_cell_angle_alpha    90
_cell_angle_beta     90
_cell_angle_gamma    114.989

_symmetry_space_group_name_H-M    "P 1"
_symmetry_int_tables_number       1

loop_
  _symmetry_equiv_pos_as_xyz
  'x, y, z'

loop_
  _atom_site_label
  _atom_site_occupancy
  _atom_site_fract_x
  _atom_site_fract_y
  _atom_site_fract_z
  _atom_site_thermal_displace_type
  _atom_site_B_iso_or_equiv
  _atom_site_type_symbol
  H1       1.0000 0.79822  0.99836  0.87131  Biso   1.000  H
  H2       1.0000 0.20178  0.00164  0.12869  Biso   1.000  H
  H3       1.0000 0.70178  0.50164  0.37131  Biso   1.000  H
  H4       1.0000 0.29822  0.49836  0.62869  Biso   1.000  H
  H5       1.0000 0.59971  0.94707  0.92827  Biso   1.000  H
  H6       1.0000 0.40029  0.05293  0.07173  Biso   1.000  H
  H7       1.0000 0.90029  0.55293  0.42827  Biso   1.000  H
  H8       1.0000 0.09971  0.44707  0.57173  Biso   1.000  H
  H9       1.0000 0.50446  0.77116  0.01144  Biso   1.000  H
  H10      1.0000 0.49554  0.22884  0.98856  Biso   1.000  H
  H11      1.0000 0.99554  0.72884  0.51144  Biso   1.000  H
  H12      1.0000 0.00446  0.27116  0.48856  Biso   1.000  H
  H13      1.0000 0.51398  0.59897  0.07785  Biso   1.000  H
  H14      1.0000 0.48602  0.40103  0.92215  Biso   1.000  H
  H15      1.0000 0.98602  0.90103  0.57785  Biso   1.000  H
  H16      1.0000 0.01398  0.09897  0.42215  Biso   1.000  H
  H17      1.0000 0.61346  0.46505  0.09697  Biso   1.000  H
  H18      1.0000 0.38654  0.53495  0.90303  Biso   1.000  H
  H19      1.0000 0.88654  0.03495  0.59697  Biso   1.000  H
  H20      1.0000 0.11346  0.96505  0.40303  Biso   1.000  H
  H21      1.0000 0.79137  0.49291  0.02393  Biso   1.000  H
  H22      1.0000 0.20863  0.50709  0.97607  Biso   1.000  H
  H23      1.0000 0.70863  0.00709  0.52393  Biso   1.000  H
  H24      1.0000 0.29137  0.99291  0.47607  Biso   1.000  H
  H25      1.0000 0.01562  0.43028  0.81713  Biso   1.000  H
  H26      1.0000 0.98438  0.56972  0.18287  Biso   1.000  H
  H27      1.0000 0.48438  0.06972  0.31713  Biso   1.000  H
  H28      1.0000 0.51562  0.93028  0.68287  Biso   1.000  H
  H29      1.0000 0.21864  0.48016  0.76796  Biso   1.000  H
  H30      1.0000 0.78136  0.51984  0.23204  Biso   1.000  H
  H31      1.0000 0.28136  0.01984  0.26796  Biso   1.000  H
  H32      1.0000 0.71864  0.98016  0.73204  Biso   1.000  H
  H33      1.0000 0.37658  0.68209  0.77943  Biso   1.000  H
  H34      1.0000 0.62342  0.31791  0.22057  Biso   1.000  H
  H35      1.0000 0.12342  0.81791  0.27943  Biso   1.000  H
  H36      1.0000 0.87658  0.18209  0.72057  Biso   1.000  H
  H37      1.0000 0.44067  0.89265  0.82045  Biso   1.000  H
  H38      1.0000 0.55933  0.10735  0.17955  Biso   1.000  H
  H39      1.0000 0.05933  0.60735  0.32045  Biso   1.000  H
  H40      1.0000 0.94067  0.39265  0.67955  Biso   1.000  H
  H41      1.0000 0.39035  0.04886  0.87308  Biso   1.000  H
  H42      1.0000 0.60965  0.95114  0.12692  Biso   1.000  H
  H43      1.0000 0.10965  0.45114  0.37308  Biso   1.000  H
  H44      1.0000 0.89035  0.54886  0.62692  Biso   1.000  H
  H45      1.0000 0.18637  0.00933  0.90812  Biso   1.000  H
  H46      1.0000 0.81363  0.99067  0.09188  Biso   1.000  H
  H47      1.0000 0.31363  0.49067  0.40812  Biso   1.000  H
  H48      1.0000 0.68637  0.50933  0.59188  Biso   1.000  H
  H49      1.0000 0.98631  0.90515  0.73526  Biso   1.000  H
  H50      1.0000 0.01369  0.09485  0.26474  Biso   1.000  H
  H51      1.0000 0.51369  0.59485  0.23526  Biso   1.000  H
  H52      1.0000 0.48631  0.40515  0.76474  Biso   1.000  H
  H53      1.0000 0.09108  0.09295  0.66263  Biso   1.000  H
  H54      1.0000 0.90892  0.90705  0.33737  Biso   1.000  H
  H55      1.0000 0.40892  0.40705  0.16263  Biso   1.000  H
  H56      1.0000 0.59108  0.59295  0.83737  Biso   1.000  H
  H57      1.0000 0.16184  0.28545  0.73270  Biso   1.000  H
  H58      1.0000 0.83816  0.71455  0.26730  Biso   1.000  H
  H59      1.0000 0.33816  0.21455  0.23270  Biso   1.000  H
  H60      1.0000 0.66184  0.78545  0.76730  Biso   1.000  H
  H61      1.0000 0.11997  0.28757  0.87411  Biso   1.000  H
  H62      1.0000 0.88003  0.71243  0.12589  Biso   1.000  H
  H63      1.0000 0.38003  0.21243  0.37411  Biso   1.000  H
  H64      1.0000 0.61997  0.78757  0.62589  Biso   1.000  H
  H65      1.0000 0.01668  0.10038  0.94502  Biso   1.000  H
  H66      1.0000 0.98332  0.89962  0.05498  Biso   1.000  H
  H67      1.0000 0.48332  0.39962  0.44502  Biso   1.000  H
  H68      1.0000 0.51668  0.60038  0.55498  Biso   1.000  H
  H69      1.0000 0.72996  0.48178  0.81205  Biso   1.000  H
  H70      1.0000 0.27004  0.51822  0.18795  Biso   1.000  H
  H71      1.0000 0.77004  0.01822  0.31205  Biso   1.000  H
  H72      1.0000 0.22996  0.98178  0.68795  Biso   1.000  H
  H73      1.0000 0.58238  0.27431  0.81367  Biso   1.000  H
  H74      1.0000 0.41762  0.72569  0.18633  Biso   1.000  H
  H75      1.0000 0.91762  0.22569  0.31367  Biso   1.000  H
  H76      1.0000 0.08238  0.77431  0.68633  Biso   1.000  H
  H77      1.0000 0.61419  0.12529  0.89154  Biso   1.000  H
  H78      1.0000 0.38581  0.87471  0.10846  Biso   1.000  H
  H79      1.0000 0.88581  0.37471  0.39154  Biso   1.000  H
  H80      1.0000 0.11419  0.62529  0.60846  Biso   1.000  H
  H81      1.0000 0.80152  0.18490  0.96742  Biso   1.000  H
  H82      1.0000 0.19848  0.81510  0.03258  Biso   1.000  H
  H83      1.0000 0.69848  0.31510  0.46742  Biso   1.000  H
  H84      1.0000 0.30152  0.68490  0.53258  Biso   1.000  H
  H85      1.0000 0.95059  0.39200  0.96746  Biso   1.000  H
  H86      1.0000 0.04941  0.60800  0.03254  Biso   1.000  H
  H87      1.0000 0.54941  0.10800  0.46746  Biso   1.000  H
  H88      1.0000 0.45059  0.89200  0.53254  Biso   1.000  H
  C1       1.0000 0.93470  0.87310  0.88681  Biso   1.000  C
  C2       1.0000 0.06530  0.12690  0.11319  Biso   1.000  C
  C3       1.0000 0.56530  0.62690  0.38681  Biso   1.000  C
  C4       1.0000 0.43470  0.37310  0.61319  Biso   1.000  C
  C5       1.0000 0.81410  0.84280  0.91426  Biso   1.000  C
  C6       1.0000 0.18590  0.15720  0.08574  Biso   1.000  C
  C7       1.0000 0.68590  0.65720  0.41426  Biso   1.000  C
  C8       1.0000 0.31410  0.34280  0.58574  Biso   1.000  C
  C9       1.0000 0.75570  0.91630  0.90460  Biso   1.000  C
  C10      1.0000 0.24430  0.08370  0.09540  Biso   1.000  C
  C11      1.0000 0.74430  0.58370  0.40460  Biso   1.000  C
  C12      1.0000 0.25570  0.41630  0.59540  Biso   1.000  C
  C13      1.0000 0.64320  0.88790  0.93830  Biso   1.000  C
  C14      1.0000 0.35680  0.11210  0.06170  Biso   1.000  C
  C15      1.0000 0.85680  0.61210  0.43830  Biso   1.000  C
  C16      1.0000 0.14320  0.38790  0.56170  Biso   1.000  C
  C17      1.0000 0.59070  0.79170  0.98400  Biso   1.000  C
  C18      1.0000 0.40930  0.20830  0.01600  Biso   1.000  C
  C19      1.0000 0.90930  0.70830  0.48400  Biso   1.000  C
  C20      1.0000 0.09070  0.29170  0.51600  Biso   1.000  C
  C21      1.0000 0.64640  0.71330  0.99790  Biso   1.000  C
  C22      1.0000 0.35360  0.28670  0.00210  Biso   1.000  C
  C23      1.0000 0.85360  0.78670  0.49790  Biso   1.000  C
  C24      1.0000 0.14640  0.21330  0.50210  Biso   1.000  C
  C25      1.0000 0.59700  0.61480  0.04750  Biso   1.000  C
  C26      1.0000 0.40300  0.38520  0.95250  Biso   1.000  C
  C27      1.0000 0.90300  0.88520  0.54750  Biso   1.000  C
  C28      1.0000 0.09700  0.11480  0.45250  Biso   1.000  C
  C29      1.0000 0.65120  0.54010  0.05700  Biso   1.000  C
  C30      1.0000 0.34880  0.45990  0.94300  Biso   1.000  C
  C31      1.0000 0.84880  0.95990  0.55700  Biso   1.000  C
  C32      1.0000 0.15120  0.04010  0.44300  Biso   1.000  C
  C33      1.0000 0.75190  0.55560  0.01530  Biso   1.000  C
  C34      1.0000 0.24810  0.44440  0.98470  Biso   1.000  C
  C35      1.0000 0.74810  0.94440  0.51530  Biso   1.000  C
  C36      1.0000 0.25190  0.05560  0.48470  Biso   1.000  C
  C37      1.0000 0.80550  0.65090  0.96393  Biso   1.000  C
  C38      1.0000 0.19450  0.34910  0.03607  Biso   1.000  C
  C39      1.0000 0.69450  0.84910  0.46393  Biso   1.000  C
  C40      1.0000 0.30550  0.15090  0.53607  Biso   1.000  C
  C41      1.0000 0.91100  0.67100  0.91689  Biso   1.000  C
  C42      1.0000 0.08900  0.32900  0.08311  Biso   1.000  C
  C43      1.0000 0.58900  0.82900  0.41689  Biso   1.000  C
  C44      1.0000 0.41100  0.17100  0.58311  Biso   1.000  C
  C45      1.0000 0.93830  0.58140  0.88881  Biso   1.000  C
  C46      1.0000 0.06170  0.41860  0.11119  Biso   1.000  C
  C47      1.0000 0.56170  0.91860  0.38881  Biso   1.000  C
  C48      1.0000 0.43830  0.08140  0.61119  Biso   1.000  C
  C49      1.0000 0.05360  0.60890  0.85105  Biso   1.000  C
  C50      1.0000 0.94640  0.39110  0.14895  Biso   1.000  C
  C51      1.0000 0.44640  0.89110  0.35105  Biso   1.000  C
  C52      1.0000 0.55360  0.10890  0.64895  Biso   1.000  C
  C53      1.0000 0.08250  0.52210  0.81950  Biso   1.000  C
  C54      1.0000 0.91750  0.47790  0.18050  Biso   1.000  C
  C55      1.0000 0.41750  0.97790  0.31950  Biso   1.000  C
  C56      1.0000 0.58250  0.02210  0.68050  Biso   1.000  C
  C57      1.0000 0.19800  0.55040  0.79260  Biso   1.000  C
  C58      1.0000 0.80200  0.44960  0.20740  Biso   1.000  C
  C59      1.0000 0.30200  0.94960  0.29260  Biso   1.000  C
  C60      1.0000 0.69800  0.05040  0.70740  Biso   1.000  C
  C61      1.0000 0.28590  0.66210  0.79890  Biso   1.000  C
  C62      1.0000 0.71410  0.33790  0.20110  Biso   1.000  C
  C63      1.0000 0.21410  0.83790  0.29890  Biso   1.000  C
  C64      1.0000 0.78590  0.16210  0.70110  Biso   1.000  C
  C65      1.0000 0.26150  0.75550  0.83000  Biso   1.000  C
  C66      1.0000 0.73850  0.24450  0.17000  Biso   1.000  C
  C67      1.0000 0.23850  0.74450  0.33000  Biso   1.000  C
  C68      1.0000 0.76150  0.25550  0.67000  Biso   1.000  C
  C69      1.0000 0.34930  0.87330  0.83790  Biso   1.000  C
  C70      1.0000 0.65070  0.12670  0.16210  Biso   1.000  C
  C71      1.0000 0.15070  0.62670  0.33790  Biso   1.000  C
  C72      1.0000 0.84930  0.37330  0.66210  Biso   1.000  C
  C73      1.0000 0.32110  0.95850  0.86570  Biso   1.000  C
  C74      1.0000 0.67890  0.04150  0.13430  Biso   1.000  C
  C75      1.0000 0.17890  0.54150  0.36570  Biso   1.000  C
  C76      1.0000 0.82110  0.45850  0.63430  Biso   1.000  C
  C77      1.0000 0.20470  0.93700  0.88530  Biso   1.000  C
  C78      1.0000 0.79530  0.06300  0.11470  Biso   1.000  C
  C79      1.0000 0.29530  0.56300  0.38530  Biso   1.000  C
  C80      1.0000 0.70470  0.43700  0.61470  Biso   1.000  C
  C81      1.0000 0.11280  0.82330  0.87681  Biso   1.000  C
  C82      1.0000 0.88720  0.17670  0.12319  Biso   1.000  C
  C83      1.0000 0.38720  0.67670  0.37681  Biso   1.000  C
  C84      1.0000 0.61280  0.32330  0.62319  Biso   1.000  C
  C85      1.0000 0.98660  0.79460  0.89484  Biso   1.000  C
  C86      1.0000 0.01340  0.20540  0.10516  Biso   1.000  C
  C87      1.0000 0.51340  0.70540  0.39484  Biso   1.000  C
  C88      1.0000 0.48660  0.29460  0.60516  Biso   1.000  C
  C89      1.0000 0.75520  0.73560  0.95851  Biso   1.000  C
  C90      1.0000 0.24480  0.26440  0.04149  Biso   1.000  C
  C91      1.0000 0.74480  0.76440  0.45851  Biso   1.000  C
  C92      1.0000 0.25520  0.23560  0.54149  Biso   1.000  C
  C93      1.0000 0.14270  0.72930  0.85273  Biso   1.000  C
  C94      1.0000 0.85730  0.27070  0.14727  Biso   1.000  C
  C95      1.0000 0.35730  0.77070  0.35273  Biso   1.000  C
  C96      1.0000 0.64270  0.22930  0.64727  Biso   1.000  C
  C97      1.0000 0.99680  0.98990  0.84474  Biso   1.000  C
  C98      1.0000 0.00320  0.01010  0.15526  Biso   1.000  C
  C99      1.0000 0.50320  0.51010  0.34474  Biso   1.000  C
  C100     1.0000 0.49680  0.48990  0.65526  Biso   1.000  C
  C101     1.0000 0.01720  0.99030  0.76570  Biso   1.000  C
  C102     1.0000 0.98280  0.00970  0.23430  Biso   1.000  C
  C103     1.0000 0.48280  0.50970  0.26570  Biso   1.000  C
  C104     1.0000 0.51720  0.49030  0.73430  Biso   1.000  C
  C105     1.0000 0.07460  0.09420  0.72490  Biso   1.000  C
  C106     1.0000 0.92540  0.90580  0.27510  Biso   1.000  C
  C107     1.0000 0.42540  0.40580  0.22490  Biso   1.000  C
  C108     1.0000 0.57460  0.59420  0.77510  Biso   1.000  C
  C109     1.0000 0.11440  0.20260  0.76450  Biso   1.000  C
  C110     1.0000 0.88560  0.79740  0.23550  Biso   1.000  C
  C111     1.0000 0.38560  0.29740  0.26450  Biso   1.000  C
  C112     1.0000 0.61440  0.70260  0.73550  Biso   1.000  C
  C113     1.0000 0.09060  0.20340  0.84290  Biso   1.000  C
  C114     1.0000 0.90940  0.79660  0.15710  Biso   1.000  C
  C115     1.0000 0.40940  0.29660  0.34290  Biso   1.000  C
  C116     1.0000 0.59060  0.70340  0.65710  Biso   1.000  C
  C117     1.0000 0.03320  0.09860  0.88270  Biso   1.000  C
  C118     1.0000 0.96680  0.90140  0.11730  Biso   1.000  C
  C119     1.0000 0.46680  0.40140  0.38270  Biso   1.000  C
  C120     1.0000 0.53320  0.59860  0.61730  Biso   1.000  C
  C121     1.0000 0.85000  0.45350  0.89132  Biso   1.000  C
  C122     1.0000 0.15000  0.54650  0.10868  Biso   1.000  C
  C123     1.0000 0.65000  0.04650  0.39132  Biso   1.000  C
  C124     1.0000 0.35000  0.95350  0.60868  Biso   1.000  C
  C125     1.0000 0.74550  0.41710  0.84780  Biso   1.000  C
  C126     1.0000 0.25450  0.58290  0.15220  Biso   1.000  C
  C127     1.0000 0.75450  0.08290  0.34780  Biso   1.000  C
  C128     1.0000 0.24550  0.91710  0.65220  Biso   1.000  C
  C129     1.0000 0.66310  0.30010  0.84900  Biso   1.000  C
  C130     1.0000 0.33690  0.69990  0.15100  Biso   1.000  C
  C131     1.0000 0.83690  0.19990  0.34900  Biso   1.000  C
  C132     1.0000 0.16310  0.80010  0.65100  Biso   1.000  C
  C133     1.0000 0.68020  0.21780  0.89150  Biso   1.000  C
  C134     1.0000 0.31980  0.78220  0.10850  Biso   1.000  C
  C135     1.0000 0.81980  0.28220  0.39150  Biso   1.000  C
  C136     1.0000 0.18020  0.71780  0.60850  Biso   1.000  C
  C137     1.0000 0.78530  0.25080  0.93330  Biso   1.000  C
  C138     1.0000 0.21470  0.74920  0.06670  Biso   1.000  C
  C139     1.0000 0.71470  0.24920  0.43330  Biso   1.000  C
  C140     1.0000 0.28530  0.75080  0.56670  Biso   1.000  C
  C141     1.0000 0.86900  0.36730  0.93340  Biso   1.000  C
  C142     1.0000 0.13100  0.63270  0.06660  Biso   1.000  C
  C143     1.0000 0.63100  0.13270  0.43340  Biso   1.000  C
  C144     1.0000 0.36900  0.86730  0.56660  Biso   1.000  C
