data_image0
_cell_length_a       6.216
_cell_length_b       8.348
_cell_length_c       11.8175
_cell_angle_alpha    96.2606
_cell_angle_beta     105.248
_cell_angle_gamma    90

_symmetry_space_group_name_H-M    "P 1"
_symmetry_int_tables_number       1

loop_
  _symmetry_equiv_pos_as_xyz
  'x, y, z'

loop_
  _atom_site_label
  _atom_site_occupancy
  _atom_site_fract_x
  _atom_site_fract_y
  _atom_site_fract_z
  _atom_site_thermal_displace_type
  _atom_site_B_iso_or_equiv
  _atom_site_type_symbol
  C1       1.0000 0.15590  0.44410  0.65100  Biso   1.000  C
  C2       1.0000 0.84410  0.55590  0.34900  Biso   1.000  C
  C3       1.0000 0.50490  0.05590  0.34900  Biso   1.000  C
  C4       1.0000 0.49510  0.94410  0.65100  Biso   1.000  C
  C5       1.0000 0.34730  0.36530  0.70880  Biso   1.000  C
  C6       1.0000 0.65270  0.63470  0.29120  Biso   1.000  C
  C7       1.0000 0.63850  0.13470  0.29120  Biso   1.000  C
  C8       1.0000 0.36150  0.86530  0.70880  Biso   1.000  C
  C9       1.0000 0.39300  0.35040  0.82700  Biso   1.000  C
  C10      1.0000 0.60700  0.64960  0.17300  Biso   1.000  C
  C11      1.0000 0.56600  0.14960  0.17300  Biso   1.000  C
  C12      1.0000 0.43400  0.85040  0.82700  Biso   1.000  C
  C13      1.0000 0.25180  0.41320  0.89360  Biso   1.000  C
  C14      1.0000 0.74820  0.58680  0.10640  Biso   1.000  C
  C15      1.0000 0.35820  0.08680  0.10640  Biso   1.000  C
  C16      1.0000 0.64180  0.91320  0.89360  Biso   1.000  C
  C17      1.0000 0.06510  0.48980  0.84080  Biso   1.000  C
  C18      1.0000 0.93490  0.51020  0.15920  Biso   1.000  C
  C19      1.0000 0.22430  0.01020  0.15920  Biso   1.000  C
  C20      1.0000 0.77570  0.98980  0.84080  Biso   1.000  C
  C21      1.0000 0.01150  0.50690  0.71880  Biso   1.000  C
  C22      1.0000 0.98850  0.49310  0.28120  Biso   1.000  C
  C23      1.0000 0.29270  0.99310  0.28120  Biso   1.000  C
  C24      1.0000 0.70730  0.00690  0.71880  Biso   1.000  C
  C25      1.0000 0.81670  0.58650  0.66400  Biso   1.000  C
  C26      1.0000 0.18330  0.41350  0.33600  Biso   1.000  C
  C27      1.0000 0.15270  0.91350  0.33600  Biso   1.000  C
  C28      1.0000 0.84730  0.08650  0.66400  Biso   1.000  C
  C29      1.0000 0.76530  0.60100  0.54900  Biso   1.000  C
  C30      1.0000 0.23470  0.39900  0.45100  Biso   1.000  C
  C31      1.0000 0.21630  0.89900  0.45100  Biso   1.000  C
  C32      1.0000 0.78370  0.10100  0.54900  Biso   1.000  C
  C33      1.0000 0.09760  0.46090  0.52560  Biso   1.000  C
  C34      1.0000 0.90240  0.53910  0.47440  Biso   1.000  C
  C35      1.0000 0.57200  0.03910  0.47440  Biso   1.000  C
  C36      1.0000 0.42800  0.96090  0.52560  Biso   1.000  C
  H1       1.0000 0.46219  0.31545  0.65988  Biso   1.000  H
  H2       1.0000 0.38633  0.33826  0.49030  Biso   1.000  H
  H3       1.0000 0.54200  0.28821  0.86901  Biso   1.000  H
  H4       1.0000 0.29185  0.36630  0.28218  Biso   1.000  H
  H5       1.0000 0.29229  0.40127  0.98773  Biso   1.000  H
  H6       1.0000 0.04796  0.45994  0.10886  Biso   1.000  H
  H7       1.0000 0.70815  0.63370  0.71782  Biso   1.000  H
  H8       1.0000 0.95204  0.54006  0.89114  Biso   1.000  H
  H9       1.0000 0.61367  0.66174  0.50970  Biso   1.000  H
  H10      1.0000 0.53781  0.68455  0.34012  Biso   1.000  H
  H11      1.0000 0.45800  0.71179  0.13099  Biso   1.000  H
  H12      1.0000 0.70771  0.59873  0.01227  Biso   1.000  H
  H13      1.0000 0.80231  0.18455  0.34012  Biso   1.000  H
  H14      1.0000 0.67298  0.21179  0.13099  Biso   1.000  H
  H15      1.0000 0.89603  0.16174  0.50970  Biso   1.000  H
  H16      1.0000 0.30457  0.09872  0.01227  Biso   1.000  H
  H17      1.0000 0.00967  0.13370  0.71782  Biso   1.000  H
  H18      1.0000 0.93910  0.04006  0.89115  Biso   1.000  H
  H19      1.0000 0.06090  0.95994  0.10885  Biso   1.000  H
  H20      1.0000 0.99033  0.86630  0.28218  Biso   1.000  H
  H21      1.0000 0.10397  0.83826  0.49030  Biso   1.000  H
  H22      1.0000 0.19769  0.81545  0.65988  Biso   1.000  H
  H23      1.0000 0.32702  0.78821  0.86901  Biso   1.000  H
  H24      1.0000 0.69543  0.90128  0.98773  Biso   1.000  H
