data_image0
_cell_length_a       5.11
_cell_length_b       12.86
_cell_length_c       17.9826
_cell_angle_alpha    108.853
_cell_angle_beta     90
_cell_angle_gamma    90

_symmetry_space_group_name_H-M    "P 1"
_symmetry_int_tables_number       1

loop_
  _symmetry_equiv_pos_as_xyz
  'x, y, z'

loop_
  _atom_site_label
  _atom_site_occupancy
  _atom_site_fract_x
  _atom_site_fract_y
  _atom_site_fract_z
  _atom_site_thermal_displace_type
  _atom_site_B_iso_or_equiv
  _atom_site_type_symbol
  C1       1.0000 0.17800  0.63360  0.03890  Biso   1.000  C
  C2       1.0000 0.82200  0.36640  0.96110  Biso   1.000  C
  C3       1.0000 0.67800  0.86640  0.46110  Biso   1.000  C
  C4       1.0000 0.32200  0.13360  0.53890  Biso   1.000  C
  C5       1.0000 0.35000  0.11100  0.86030  Biso   1.000  C
  C6       1.0000 0.65000  0.88900  0.13970  Biso   1.000  C
  C7       1.0000 0.85000  0.38900  0.63970  Biso   1.000  C
  C8       1.0000 0.15000  0.61100  0.36030  Biso   1.000  C
  C9       1.0000 0.51900  0.11830  0.80240  Biso   1.000  C
  C10      1.0000 0.48100  0.88170  0.19760  Biso   1.000  C
  C11      1.0000 0.01900  0.38170  0.69760  Biso   1.000  C
  C12      1.0000 0.98100  0.61830  0.30240  Biso   1.000  C
  C13      1.0000 0.69800  0.03560  0.76840  Biso   1.000  C
  C14      1.0000 0.30200  0.96440  0.23160  Biso   1.000  C
  C15      1.0000 0.19800  0.46440  0.73160  Biso   1.000  C
  C16      1.0000 0.80200  0.53560  0.26840  Biso   1.000  C
  C17      1.0000 0.69500  0.74180  0.83640  Biso   1.000  C
  C18      1.0000 0.30500  0.25820  0.16360  Biso   1.000  C
  C19      1.0000 0.19500  0.75820  0.66360  Biso   1.000  C
  C20      1.0000 0.80500  0.24180  0.33640  Biso   1.000  C
  C21      1.0000 0.52000  0.83560  0.86980  Biso   1.000  C
  C22      1.0000 0.48000  0.16440  0.13020  Biso   1.000  C
  C23      1.0000 0.02000  0.66440  0.63020  Biso   1.000  C
  C24      1.0000 0.98000  0.33560  0.36980  Biso   1.000  C
  C25      1.0000 0.34400  0.82620  0.93200  Biso   1.000  C
  C26      1.0000 0.65600  0.17380  0.06800  Biso   1.000  C
  C27      1.0000 0.84400  0.67380  0.56800  Biso   1.000  C
  C28      1.0000 0.15600  0.32620  0.43200  Biso   1.000  C
  C29      1.0000 0.17500  0.91560  0.96260  Biso   1.000  C
  C30      1.0000 0.82500  0.08440  0.03740  Biso   1.000  C
  C31      1.0000 0.67500  0.58440  0.53740  Biso   1.000  C
  C32      1.0000 0.32500  0.41560  0.46260  Biso   1.000  C
  C33      1.0000 0.00000  0.90660  0.02320  Biso   1.000  C
  C34      1.0000 0.00000  0.09340  0.97680  Biso   1.000  C
  C35      1.0000 0.50000  0.59340  0.47680  Biso   1.000  C
  C36      1.0000 0.50000  0.40660  0.52320  Biso   1.000  C
  C37      1.0000 0.16900  0.00930  0.94180  Biso   1.000  C
  C38      1.0000 0.83100  0.99070  0.05820  Biso   1.000  C
  C39      1.0000 0.66900  0.49070  0.55820  Biso   1.000  C
  C40      1.0000 0.33100  0.50930  0.44180  Biso   1.000  C
  C41      1.0000 0.34300  0.01720  0.88410  Biso   1.000  C
  C42      1.0000 0.65700  0.98280  0.11590  Biso   1.000  C
  C43      1.0000 0.84300  0.48280  0.61590  Biso   1.000  C
  C44      1.0000 0.15700  0.51720  0.38410  Biso   1.000  C
  C45      1.0000 0.99800  0.61920  0.09650  Biso   1.000  C
  C46      1.0000 0.00200  0.38080  0.90350  Biso   1.000  C
  C47      1.0000 0.49800  0.88080  0.40350  Biso   1.000  C
  C48      1.0000 0.50200  0.11920  0.59650  Biso   1.000  C
  C49      1.0000 0.51600  0.93130  0.84810  Biso   1.000  C
  C50      1.0000 0.48400  0.06870  0.15190  Biso   1.000  C
  C51      1.0000 0.01600  0.56870  0.65190  Biso   1.000  C
  C52      1.0000 0.98400  0.43130  0.34810  Biso   1.000  C
  C53      1.0000 0.69700  0.93790  0.79280  Biso   1.000  C
  C54      1.0000 0.30300  0.06210  0.20720  Biso   1.000  C
  C55      1.0000 0.19700  0.56210  0.70720  Biso   1.000  C
  C56      1.0000 0.80300  0.43790  0.29280  Biso   1.000  C
  C57      1.0000 0.82800  0.70680  0.12890  Biso   1.000  C
  C58      1.0000 0.17200  0.29320  0.87110  Biso   1.000  C
  C59      1.0000 0.32800  0.79320  0.37110  Biso   1.000  C
  C60      1.0000 0.67200  0.20680  0.62890  Biso   1.000  C
  C61      1.0000 0.69000  0.65280  0.86210  Biso   1.000  C
  C62      1.0000 0.31000  0.34720  0.13790  Biso   1.000  C
  C63      1.0000 0.19000  0.84720  0.63790  Biso   1.000  C
  C64      1.0000 0.81000  0.15280  0.36210  Biso   1.000  C
  C65      1.0000 0.51300  0.64670  0.92060  Biso   1.000  C
  C66      1.0000 0.48700  0.35330  0.07940  Biso   1.000  C
  C67      1.0000 0.01300  0.85330  0.57940  Biso   1.000  C
  C68      1.0000 0.98700  0.14670  0.42060  Biso   1.000  C
  C69      1.0000 0.34800  0.73190  0.95170  Biso   1.000  C
  C70      1.0000 0.65200  0.26810  0.04830  Biso   1.000  C
  C71      1.0000 0.84800  0.76810  0.54830  Biso   1.000  C
  C72      1.0000 0.15200  0.23190  0.45170  Biso   1.000  C
  C73      1.0000 0.17500  0.72230  0.00970  Biso   1.000  C
  C74      1.0000 0.82500  0.27770  0.99030  Biso   1.000  C
  C75      1.0000 0.67500  0.77770  0.49030  Biso   1.000  C
  C76      1.0000 0.32500  0.22230  0.50970  Biso   1.000  C
  C77      1.0000 0.99200  0.80800  0.04670  Biso   1.000  C
  C78      1.0000 0.00800  0.19200  0.95330  Biso   1.000  C
  C79      1.0000 0.49200  0.69200  0.45330  Biso   1.000  C
  C80      1.0000 0.50800  0.30800  0.54670  Biso   1.000  C
  C81      1.0000 0.82700  0.80210  0.10510  Biso   1.000  C
  C82      1.0000 0.17300  0.19790  0.89490  Biso   1.000  C
  C83      1.0000 0.32700  0.69790  0.39490  Biso   1.000  C
  C84      1.0000 0.67300  0.30210  0.60510  Biso   1.000  C
  H1       1.0000 0.83986  0.04221  0.72503  Biso   1.000  H
  H2       1.0000 0.52258  0.19045  0.78378  Biso   1.000  H
  H3       1.0000 0.31032  0.29981  0.82702  Biso   1.000  H
  H4       1.0000 0.99697  0.45373  0.88565  Biso   1.000  H
  H5       1.0000 0.31695  0.56702  0.01589  Biso   1.000  H
  H6       1.0000 0.51307  0.57362  0.93789  Biso   1.000  H
  H7       1.0000 0.82475  0.58526  0.83567  Biso   1.000  H
  H8       1.0000 0.83409  0.74243  0.79089  Biso   1.000  H
  H9       1.0000 0.83757  0.87355  0.76645  Biso   1.000  H
  H10      1.0000 0.16243  0.12645  0.23355  Biso   1.000  H
  H11      1.0000 0.48693  0.42638  0.06211  Biso   1.000  H
  H12      1.0000 0.16591  0.25757  0.20911  Biso   1.000  H
  H13      1.0000 0.17525  0.41474  0.16433  Biso   1.000  H
  H14      1.0000 0.68305  0.43298  0.98411  Biso   1.000  H
  H15      1.0000 0.00303  0.54627  0.11435  Biso   1.000  H
  H16      1.0000 0.68968  0.70019  0.17298  Biso   1.000  H
  H17      1.0000 0.47742  0.80955  0.21622  Biso   1.000  H
  H18      1.0000 0.16014  0.95779  0.27497  Biso   1.000  H
  H19      1.0000 0.01307  0.92638  0.56211  Biso   1.000  H
  H20      1.0000 0.32475  0.91474  0.66433  Biso   1.000  H
  H21      1.0000 0.33409  0.75757  0.70911  Biso   1.000  H
  H22      1.0000 0.33757  0.62645  0.73355  Biso   1.000  H
  H23      1.0000 0.33986  0.45779  0.77497  Biso   1.000  H
  H24      1.0000 0.02258  0.30955  0.71622  Biso   1.000  H
  H25      1.0000 0.81695  0.93298  0.48411  Biso   1.000  H
  H26      1.0000 0.50303  0.95373  0.38565  Biso   1.000  H
  H27      1.0000 0.18968  0.79981  0.32702  Biso   1.000  H
  H28      1.0000 0.18305  0.06702  0.51589  Biso   1.000  H
  H29      1.0000 0.81032  0.20019  0.67298  Biso   1.000  H
  H30      1.0000 0.49697  0.04627  0.61435  Biso   1.000  H
  H31      1.0000 0.97742  0.69045  0.28378  Biso   1.000  H
  H32      1.0000 0.66014  0.54221  0.22503  Biso   1.000  H
  H33      1.0000 0.66243  0.37355  0.26645  Biso   1.000  H
  H34      1.0000 0.66591  0.24243  0.29089  Biso   1.000  H
  H35      1.0000 0.98693  0.07362  0.43789  Biso   1.000  H
  H36      1.0000 0.67525  0.08526  0.33567  Biso   1.000  H
