data_image0
_cell_length_a       3.902
_cell_length_b       11.9826
_cell_length_c       19.4
_cell_angle_alpha    92.9304
_cell_angle_beta     94.866
_cell_angle_gamma    96.8252

_symmetry_space_group_name_H-M    "P 1"
_symmetry_int_tables_number       1

loop_
  _symmetry_equiv_pos_as_xyz
  'x, y, z'

loop_
  _atom_site_label
  _atom_site_occupancy
  _atom_site_fract_x
  _atom_site_fract_y
  _atom_site_fract_z
  _atom_site_thermal_displace_type
  _atom_site_B_iso_or_equiv
  _atom_site_type_symbol
  H1       1.0000 0.11362  0.01805  0.41427  Biso   1.000  H
  H2       1.0000 0.88638  0.98195  0.58573  Biso   1.000  H
  H3       1.0000 0.43329  0.40957  0.35362  Biso   1.000  H
  H4       1.0000 0.56671  0.59043  0.64638  Biso   1.000  H
  H5       1.0000 0.76806  0.92310  0.35014  Biso   1.000  H
  H6       1.0000 0.23194  0.07690  0.64986  Biso   1.000  H
  H7       1.0000 0.11565  0.05577  0.08207  Biso   1.000  H
  H8       1.0000 0.88435  0.94423  0.91793  Biso   1.000  H
  H9       1.0000 0.92287  0.69952  0.17574  Biso   1.000  H
  H10      1.0000 0.07713  0.30048  0.82426  Biso   1.000  H
  H11      1.0000 0.95017  0.45755  0.32987  Biso   1.000  H
  H12      1.0000 0.04983  0.54245  0.67013  Biso   1.000  H
  H13      1.0000 0.64307  0.02800  0.10859  Biso   1.000  H
  H14      1.0000 0.35693  0.97200  0.89141  Biso   1.000  H
  H15      1.0000 0.04512  0.55825  0.08891  Biso   1.000  H
  H16      1.0000 0.95488  0.44175  0.91109  Biso   1.000  H
  H17      1.0000 0.29471  0.10896  0.97017  Biso   1.000  H
  H18      1.0000 0.70529  0.89104  0.02983  Biso   1.000  H
  H19      1.0000 0.29097  0.45562  0.03150  Biso   1.000  H
  H20      1.0000 0.70903  0.54438  0.96850  Biso   1.000  H
  H21      1.0000 0.73273  0.45612  0.46895  Biso   1.000  H
  H22      1.0000 0.26727  0.54388  0.53105  Biso   1.000  H
  H23      1.0000 0.45774  0.78851  0.26078  Biso   1.000  H
  H24      1.0000 0.54226  0.21149  0.73922  Biso   1.000  H
  H25      1.0000 0.37406  0.06621  0.53374  Biso   1.000  H
  H26      1.0000 0.62594  0.93379  0.46626  Biso   1.000  H
  H27      1.0000 0.72240  0.20436  0.61872  Biso   1.000  H
  H28      1.0000 0.27760  0.79564  0.38128  Biso   1.000  H
  H29      1.0000 0.38452  0.31041  0.94376  Biso   1.000  H
  H30      1.0000 0.61548  0.68959  0.05624  Biso   1.000  H
  H31      1.0000 0.86705  0.64751  0.29710  Biso   1.000  H
  H32      1.0000 0.13295  0.35249  0.70290  Biso   1.000  H
  H33      1.0000 0.38543  0.84275  0.13869  Biso   1.000  H
  H34      1.0000 0.61457  0.15725  0.86131  Biso   1.000  H
  H35      1.0000 0.90368  0.39808  0.58595  Biso   1.000  H
  H36      1.0000 0.09632  0.60192  0.41405  Biso   1.000  H
  C1       1.0000 0.07895  0.42605  0.15890  Biso   1.000  C
  C2       1.0000 0.92105  0.57395  0.84110  Biso   1.000  C
  C3       1.0000 0.35597  0.18187  0.45135  Biso   1.000  C
  C4       1.0000 0.64403  0.81813  0.54865  Biso   1.000  C
  C5       1.0000 0.17280  0.10480  0.40066  Biso   1.000  C
  C6       1.0000 0.82720  0.89520  0.59934  Biso   1.000  C
  C7       1.0000 0.90109  0.05329  0.28030  Biso   1.000  C
  C8       1.0000 0.09891  0.94671  0.71970  Biso   1.000  C
  C9       1.0000 0.34930  0.32420  0.36673  Biso   1.000  C
  C10      1.0000 0.65070  0.67580  0.63327  Biso   1.000  C
  C11      1.0000 0.13440  0.33960  0.10718  Biso   1.000  C
  C12      1.0000 0.86560  0.66040  0.89282  Biso   1.000  C
  C13      1.0000 0.74984  0.94564  0.29650  Biso   1.000  C
  C14      1.0000 0.25016  0.05436  0.70350  Biso   1.000  C
  C15      1.0000 0.07858  0.13458  0.33409  Biso   1.000  C
  C16      1.0000 0.92142  0.86542  0.66591  Biso   1.000  C
  C17      1.0000 0.45372  0.29342  0.43377  Biso   1.000  C
  C18      1.0000 0.54628  0.70658  0.56623  Biso   1.000  C
  C19      1.0000 0.13850  0.14390  0.07087  Biso   1.000  C
  C20      1.0000 0.86150  0.85610  0.92913  Biso   1.000  C
  C21      1.0000 0.00978  0.19578  0.19321  Biso   1.000  C
  C22      1.0000 0.99022  0.80422  0.80679  Biso   1.000  C
  C23      1.0000 0.15801  0.24891  0.31707  Biso   1.000  C
  C24      1.0000 0.84199  0.75109  0.68293  Biso   1.000  C
  C25      1.0000 0.87673  0.08183  0.21077  Biso   1.000  C
  C26      1.0000 0.12327  0.91817  0.78923  Biso   1.000  C
  C27      1.0000 0.07736  0.28016  0.24595  Biso   1.000  C
  C28      1.0000 0.92264  0.71984  0.75405  Biso   1.000  C
  C29      1.0000 0.96490  0.61550  0.19071  Biso   1.000  C
  C30      1.0000 0.03510  0.38450  0.80929  Biso   1.000  C
  C31      1.0000 0.06150  0.39670  0.22852  Biso   1.000  C
  C32      1.0000 0.93850  0.60330  0.77148  Biso   1.000  C
  C33      1.0000 0.98490  0.48010  0.27721  Biso   1.000  C
  C34      1.0000 0.01510  0.51990  0.72279  Biso   1.000  C
  C35      1.0000 0.68751  0.00361  0.16132  Biso   1.000  C
  C36      1.0000 0.31249  0.99639  0.83868  Biso   1.000  C
  C37      1.0000 0.03470  0.53600  0.14246  Biso   1.000  C
  C38      1.0000 0.96530  0.46400  0.85754  Biso   1.000  C
  C39      1.0000 0.07920  0.22540  0.12270  Biso   1.000  C
  C40      1.0000 0.92080  0.77460  0.87730  Biso   1.000  C
  C41      1.0000 0.24280  0.17410  0.00770  Biso   1.000  C
  C42      1.0000 0.75720  0.82590  0.99230  Biso   1.000  C
  C43      1.0000 0.23950  0.36720  0.04226  Biso   1.000  C
  C44      1.0000 0.76050  0.63280  0.95774  Biso   1.000  C
  C45      1.0000 0.65580  0.37070  0.48331  Biso   1.000  C
  C46      1.0000 0.34420  0.62930  0.51669  Biso   1.000  C
  C47      1.0000 0.57520  0.87030  0.24674  Biso   1.000  C
  C48      1.0000 0.42480  0.12970  0.75326  Biso   1.000  C
  C49      1.0000 0.45430  0.15180  0.51992  Biso   1.000  C
  C50      1.0000 0.54570  0.84820  0.48008  Biso   1.000  C
  C51      1.0000 0.64510  0.22840  0.56678  Biso   1.000  C
  C52      1.0000 0.35490  0.77160  0.43322  Biso   1.000  C
  C53      1.0000 0.29290  0.28610  0.99301  Biso   1.000  C
  C54      1.0000 0.70710  0.71390  0.00699  Biso   1.000  C
  C55      1.0000 0.93800  0.58670  0.25873  Biso   1.000  C
  C56      1.0000 0.06200  0.41330  0.74127  Biso   1.000  C
  C57      1.0000 0.53900  0.89970  0.17840  Biso   1.000  C
  C58      1.0000 0.46100  0.10030  0.82160  Biso   1.000  C
  C59      1.0000 0.74770  0.33830  0.54826  Biso   1.000  C
  C60      1.0000 0.25230  0.66170  0.45174  Biso   1.000  C
