data_image0
_cell_length_a       5.133
_cell_length_b       11.5659
_cell_length_c       15.5436
_cell_angle_alpha    90.063
_cell_angle_beta     90
_cell_angle_gamma    90

_symmetry_space_group_name_H-M    "P 1"
_symmetry_int_tables_number       1

loop_
  _symmetry_equiv_pos_as_xyz
  'x, y, z'

loop_
  _atom_site_label
  _atom_site_occupancy
  _atom_site_fract_x
  _atom_site_fract_y
  _atom_site_fract_z
  _atom_site_thermal_displace_type
  _atom_site_B_iso_or_equiv
  _atom_site_type_symbol
  H1       1.0000 0.65219  0.20636  0.15002  Biso   1.000  H
  H2       1.0000 0.34781  0.79364  0.84998  Biso   1.000  H
  H3       1.0000 0.15219  0.79364  0.34998  Biso   1.000  H
  H4       1.0000 0.84781  0.20636  0.65002  Biso   1.000  H
  H5       1.0000 0.58286  0.40101  0.09492  Biso   1.000  H
  H6       1.0000 0.41714  0.59899  0.90508  Biso   1.000  H
  H7       1.0000 0.08286  0.59899  0.40508  Biso   1.000  H
  H8       1.0000 0.91714  0.40101  0.59492  Biso   1.000  H
  H9       1.0000 0.25182  0.43844  0.98461  Biso   1.000  H
  H10      1.0000 0.74818  0.56156  0.01539  Biso   1.000  H
  H11      1.0000 0.75182  0.56156  0.51539  Biso   1.000  H
  H12      1.0000 0.24818  0.43844  0.48461  Biso   1.000  H
  H13      1.0000 0.02349  0.46167  0.88749  Biso   1.000  H
  H14      1.0000 0.97651  0.53833  0.11251  Biso   1.000  H
  H15      1.0000 0.52349  0.53833  0.61251  Biso   1.000  H
  H16      1.0000 0.47651  0.46167  0.38749  Biso   1.000  H
  H17      1.0000 0.69107  0.49373  0.77719  Biso   1.000  H
  H18      1.0000 0.30893  0.50627  0.22281  Biso   1.000  H
  H19      1.0000 0.19107  0.50627  0.72281  Biso   1.000  H
  H20      1.0000 0.80893  0.49373  0.27719  Biso   1.000  H
  H21      1.0000 0.39398  0.33480  0.73344  Biso   1.000  H
  H22      1.0000 0.60602  0.66520  0.26656  Biso   1.000  H
  H23      1.0000 0.89398  0.66520  0.76656  Biso   1.000  H
  H24      1.0000 0.10602  0.33480  0.23344  Biso   1.000  H
  H25      1.0000 0.23781  0.13889  0.75181  Biso   1.000  H
  H26      1.0000 0.76219  0.86111  0.24819  Biso   1.000  H
  H27      1.0000 0.73781  0.86111  0.74819  Biso   1.000  H
  H28      1.0000 0.26219  0.13889  0.25181  Biso   1.000  H
  H29      1.0000 0.28130  0.94694  0.81304  Biso   1.000  H
  H30      1.0000 0.71870  0.05306  0.18696  Biso   1.000  H
  H31      1.0000 0.78130  0.05306  0.68696  Biso   1.000  H
  H32      1.0000 0.21870  0.94694  0.31304  Biso   1.000  H
  C1       1.0000 0.34530  0.12756  0.07349  Biso   1.000  C
  C2       1.0000 0.65470  0.87244  0.92651  Biso   1.000  C
  C3       1.0000 0.84530  0.87244  0.42651  Biso   1.000  C
  C4       1.0000 0.15470  0.12756  0.57349  Biso   1.000  C
  C5       1.0000 0.50080  0.22037  0.10231  Biso   1.000  C
  C6       1.0000 0.49920  0.77963  0.89769  Biso   1.000  C
  C7       1.0000 0.00080  0.77963  0.39769  Biso   1.000  C
  C8       1.0000 0.99920  0.22037  0.60231  Biso   1.000  C
  C9       1.0000 0.46340  0.33009  0.07099  Biso   1.000  C
  C10      1.0000 0.53660  0.66991  0.92901  Biso   1.000  C
  C11      1.0000 0.96340  0.66991  0.42901  Biso   1.000  C
  C12      1.0000 0.03660  0.33009  0.57099  Biso   1.000  C
  C13      1.0000 0.27510  0.35082  0.00860  Biso   1.000  C
  C14      1.0000 0.72490  0.64918  0.99140  Biso   1.000  C
  C15      1.0000 0.77510  0.64918  0.49140  Biso   1.000  C
  C16      1.0000 0.22490  0.35082  0.50860  Biso   1.000  C
  C17      1.0000 0.11920  0.26179  0.97715  Biso   1.000  C
  C18      1.0000 0.88080  0.73821  0.02285  Biso   1.000  C
  C19      1.0000 0.61920  0.73821  0.52285  Biso   1.000  C
  C20      1.0000 0.38080  0.26179  0.47715  Biso   1.000  C
  C21      1.0000 0.92440  0.28336  0.90955  Biso   1.000  C
  C22      1.0000 0.07560  0.71664  0.09045  Biso   1.000  C
  C23      1.0000 0.42440  0.71664  0.59045  Biso   1.000  C
  C24      1.0000 0.57560  0.28336  0.40955  Biso   1.000  C
  C25      1.0000 0.89700  0.38992  0.87016  Biso   1.000  C
  C26      1.0000 0.10300  0.61008  0.12984  Biso   1.000  C
  C27      1.0000 0.39700  0.61008  0.62984  Biso   1.000  C
  C28      1.0000 0.60300  0.38992  0.37016  Biso   1.000  C
  C29      1.0000 0.70700  0.40874  0.80673  Biso   1.000  C
  C30      1.0000 0.29300  0.59126  0.19327  Biso   1.000  C
  C31      1.0000 0.20700  0.59126  0.69327  Biso   1.000  C
  C32      1.0000 0.79300  0.40874  0.30673  Biso   1.000  C
  C33      1.0000 0.54260  0.32170  0.78262  Biso   1.000  C
  C34      1.0000 0.45740  0.67830  0.21738  Biso   1.000  C
  C35      1.0000 0.04260  0.67830  0.71738  Biso   1.000  C
  C36      1.0000 0.95740  0.32170  0.28262  Biso   1.000  C
  C37      1.0000 0.56330  0.21183  0.82073  Biso   1.000  C
  C38      1.0000 0.43670  0.78817  0.17927  Biso   1.000  C
  C39      1.0000 0.06330  0.78817  0.67927  Biso   1.000  C
  C40      1.0000 0.93670  0.21183  0.32073  Biso   1.000  C
  C41      1.0000 0.39270  0.12108  0.79756  Biso   1.000  C
  C42      1.0000 0.60730  0.87892  0.20244  Biso   1.000  C
  C43      1.0000 0.89270  0.87892  0.70244  Biso   1.000  C
  C44      1.0000 0.10730  0.12108  0.29756  Biso   1.000  C
  C45      1.0000 0.41910  0.01342  0.83219  Biso   1.000  C
  C46      1.0000 0.58090  0.98658  0.16781  Biso   1.000  C
  C47      1.0000 0.91910  0.98658  0.66781  Biso   1.000  C
  C48      1.0000 0.08090  0.01342  0.33219  Biso   1.000  C
  C49      1.0000 0.61830  0.98844  0.89256  Biso   1.000  C
  C50      1.0000 0.38170  0.01156  0.10744  Biso   1.000  C
  C51      1.0000 0.11830  0.01156  0.60744  Biso   1.000  C
  C52      1.0000 0.88170  0.98844  0.39256  Biso   1.000  C
  C53      1.0000 0.78530  0.07753  0.91984  Biso   1.000  C
  C54      1.0000 0.21470  0.92247  0.08016  Biso   1.000  C
  C55      1.0000 0.28530  0.92247  0.58016  Biso   1.000  C
  C56      1.0000 0.71470  0.07753  0.41984  Biso   1.000  C
  C57      1.0000 0.98370  0.05522  0.98265  Biso   1.000  C
  C58      1.0000 0.01630  0.94478  0.01735  Biso   1.000  C
  C59      1.0000 0.48370  0.94478  0.51735  Biso   1.000  C
  C60      1.0000 0.51630  0.05522  0.48265  Biso   1.000  C
  C61      1.0000 0.14940  0.14893  0.01124  Biso   1.000  C
  C62      1.0000 0.85060  0.85107  0.98876  Biso   1.000  C
  C63      1.0000 0.64940  0.85107  0.48876  Biso   1.000  C
  C64      1.0000 0.35060  0.14893  0.51124  Biso   1.000  C
  C65      1.0000 0.75890  0.19102  0.88383  Biso   1.000  C
  C66      1.0000 0.24110  0.80898  0.11617  Biso   1.000  C
  C67      1.0000 0.25890  0.80898  0.61617  Biso   1.000  C
  C68      1.0000 0.74110  0.19102  0.38383  Biso   1.000  C
