data_image0
_cell_length_a       10.104
_cell_length_b       12.19
_cell_length_c       17.237
_cell_angle_alpha    102.484
_cell_angle_beta     90
_cell_angle_gamma    90

_symmetry_space_group_name_H-M    "P 1"
_symmetry_int_tables_number       1

loop_
  _symmetry_equiv_pos_as_xyz
  'x, y, z'

loop_
  _atom_site_label
  _atom_site_occupancy
  _atom_site_fract_x
  _atom_site_fract_y
  _atom_site_fract_z
  _atom_site_thermal_displace_type
  _atom_site_B_iso_or_equiv
  _atom_site_type_symbol
  H1       1.0000 0.89184  0.37114  0.17310  Biso   1.000  H
  H2       1.0000 0.10816  0.62886  0.82690  Biso   1.000  H
  H3       1.0000 0.39184  0.12886  0.32690  Biso   1.000  H
  H4       1.0000 0.60816  0.87114  0.67310  Biso   1.000  H
  H5       1.0000 0.90054  0.48736  0.30904  Biso   1.000  H
  H6       1.0000 0.09946  0.51264  0.69096  Biso   1.000  H
  H7       1.0000 0.40054  0.01264  0.19096  Biso   1.000  H
  H8       1.0000 0.59946  0.98736  0.80904  Biso   1.000  H
  H9       1.0000 0.82801  0.68355  0.34068  Biso   1.000  H
  H10      1.0000 0.17199  0.31645  0.65932  Biso   1.000  H
  H11      1.0000 0.32801  0.81645  0.15932  Biso   1.000  H
  H12      1.0000 0.67199  0.18355  0.84068  Biso   1.000  H
  H13      1.0000 0.62645  0.78654  0.03407  Biso   1.000  H
  H14      1.0000 0.37355  0.21346  0.96593  Biso   1.000  H
  H15      1.0000 0.12645  0.71346  0.46593  Biso   1.000  H
  H16      1.0000 0.87355  0.28654  0.53407  Biso   1.000  H
  H17      1.0000 0.62643  0.91134  0.16809  Biso   1.000  H
  H18      1.0000 0.37357  0.08866  0.83191  Biso   1.000  H
  H19      1.0000 0.12643  0.58866  0.33191  Biso   1.000  H
  H20      1.0000 0.87357  0.41134  0.66809  Biso   1.000  H
  H21      1.0000 0.71067  0.85144  0.28446  Biso   1.000  H
  H22      1.0000 0.28933  0.14856  0.71554  Biso   1.000  H
  H23      1.0000 0.21067  0.64856  0.21554  Biso   1.000  H
  H24      1.0000 0.78933  0.35144  0.78446  Biso   1.000  H
  H25      1.0000 0.96658  0.40031  0.92297  Biso   1.000  H
  H26      1.0000 0.03342  0.59969  0.07703  Biso   1.000  H
  H27      1.0000 0.46658  0.09969  0.57703  Biso   1.000  H
  H28      1.0000 0.53342  0.90031  0.42297  Biso   1.000  H
  H29      1.0000 0.04070  0.20737  0.86288  Biso   1.000  H
  H30      1.0000 0.95930  0.79263  0.13712  Biso   1.000  H
  H31      1.0000 0.54070  0.29263  0.63712  Biso   1.000  H
  H32      1.0000 0.45930  0.70737  0.36288  Biso   1.000  H
  H33      1.0000 0.94119  0.04473  0.90444  Biso   1.000  H
  H34      1.0000 0.05881  0.95527  0.09556  Biso   1.000  H
  H35      1.0000 0.44119  0.45527  0.59556  Biso   1.000  H
  H36      1.0000 0.55881  0.54473  0.40444  Biso   1.000  H
  H37      1.0000 0.60090  0.35113  0.08907  Biso   1.000  H
  H38      1.0000 0.39910  0.64887  0.91093  Biso   1.000  H
  H39      1.0000 0.10090  0.14887  0.41093  Biso   1.000  H
  H40      1.0000 0.89910  0.85113  0.58907  Biso   1.000  H
  H41      1.0000 0.49043  0.18745  0.12121  Biso   1.000  H
  H42      1.0000 0.50957  0.81255  0.87879  Biso   1.000  H
  H43      1.0000 0.99043  0.31255  0.37879  Biso   1.000  H
  H44      1.0000 0.00957  0.68745  0.62121  Biso   1.000  H
  H45      1.0000 0.57672  0.99551  0.06759  Biso   1.000  H
  H46      1.0000 0.42328  0.00449  0.93241  Biso   1.000  H
  H47      1.0000 0.07672  0.50449  0.43241  Biso   1.000  H
  H48      1.0000 0.92328  0.49551  0.56759  Biso   1.000  H
  H49      1.0000 0.77104  0.96716  0.97961  Biso   1.000  H
  H50      1.0000 0.22896  0.03284  0.02039  Biso   1.000  H
  H51      1.0000 0.27104  0.53284  0.52039  Biso   1.000  H
  H52      1.0000 0.72896  0.46716  0.47961  Biso   1.000  H
  H53      1.0000 0.55446  0.40903  0.92748  Biso   1.000  H
  H54      1.0000 0.44554  0.59097  0.07252  Biso   1.000  H
  H55      1.0000 0.05446  0.09097  0.57252  Biso   1.000  H
  H56      1.0000 0.94554  0.90903  0.42748  Biso   1.000  H
  H57      1.0000 0.47020  0.39854  0.79168  Biso   1.000  H
  H58      1.0000 0.52980  0.60146  0.20832  Biso   1.000  H
  H59      1.0000 0.97020  0.10146  0.70832  Biso   1.000  H
  H60      1.0000 0.02980  0.89854  0.29168  Biso   1.000  H
  H61      1.0000 0.54943  0.53057  0.71233  Biso   1.000  H
  H62      1.0000 0.45057  0.46943  0.28767  Biso   1.000  H
  H63      1.0000 0.04943  0.96943  0.78767  Biso   1.000  H
  H64      1.0000 0.95057  0.03057  0.21233  Biso   1.000  H
  H65      1.0000 0.87829  0.70462  0.96669  Biso   1.000  H
  H66      1.0000 0.12171  0.29538  0.03331  Biso   1.000  H
  H67      1.0000 0.37829  0.79538  0.53331  Biso   1.000  H
  H68      1.0000 0.62171  0.20462  0.46669  Biso   1.000  H
  H69      1.0000 0.95719  0.83328  0.88668  Biso   1.000  H
  H70      1.0000 0.04281  0.16672  0.11332  Biso   1.000  H
  H71      1.0000 0.45719  0.66672  0.61332  Biso   1.000  H
  H72      1.0000 0.54281  0.33328  0.38668  Biso   1.000  H
  H73      1.0000 0.86261  0.82688  0.75206  Biso   1.000  H
  H74      1.0000 0.13739  0.17312  0.24794  Biso   1.000  H
  H75      1.0000 0.36261  0.67312  0.74794  Biso   1.000  H
  H76      1.0000 0.63739  0.32688  0.25206  Biso   1.000  H
  H77      1.0000 0.69266  0.68731  0.69856  Biso   1.000  H
  H78      1.0000 0.30734  0.31269  0.30144  Biso   1.000  H
  H79      1.0000 0.19266  0.81269  0.80144  Biso   1.000  H
  H80      1.0000 0.80734  0.18731  0.19856  Biso   1.000  H
  C1       1.0000 0.73235  0.55032  0.00824  Biso   1.000  C
  C2       1.0000 0.26765  0.44968  0.99176  Biso   1.000  C
  C3       1.0000 0.23235  0.94968  0.49176  Biso   1.000  C
  C4       1.0000 0.76765  0.05032  0.50824  Biso   1.000  C
  C5       1.0000 0.71861  0.64992  0.07480  Biso   1.000  C
  C6       1.0000 0.28139  0.35008  0.92520  Biso   1.000  C
  C7       1.0000 0.21861  0.85008  0.42520  Biso   1.000  C
  C8       1.0000 0.78139  0.14992  0.57480  Biso   1.000  C
  C9       1.0000 0.76769  0.61694  0.14309  Biso   1.000  C
  C10      1.0000 0.23231  0.38306  0.85691  Biso   1.000  C
  C11      1.0000 0.26769  0.88306  0.35691  Biso   1.000  C
  C12      1.0000 0.73231  0.11694  0.64309  Biso   1.000  C
  C13      1.0000 0.80890  0.50441  0.12396  Biso   1.000  C
  C14      1.0000 0.19110  0.49559  0.87604  Biso   1.000  C
  C15      1.0000 0.30890  0.99559  0.37604  Biso   1.000  C
  C16      1.0000 0.69110  0.00441  0.62396  Biso   1.000  C
  C17      1.0000 0.85767  0.45782  0.18369  Biso   1.000  C
  C18      1.0000 0.14233  0.54218  0.81631  Biso   1.000  C
  C19      1.0000 0.35767  0.04218  0.31631  Biso   1.000  C
  C20      1.0000 0.64233  0.95782  0.68369  Biso   1.000  C
  C21      1.0000 0.86310  0.52548  0.26168  Biso   1.000  C
  C22      1.0000 0.13690  0.47452  0.73832  Biso   1.000  C
  C23      1.0000 0.36310  0.97452  0.23832  Biso   1.000  C
  C24      1.0000 0.63690  0.02548  0.76168  Biso   1.000  C
  C25      1.0000 0.82149  0.63481  0.27987  Biso   1.000  C
  C26      1.0000 0.17851  0.36519  0.72013  Biso   1.000  C
  C27      1.0000 0.32149  0.86519  0.22013  Biso   1.000  C
  C28      1.0000 0.67851  0.13481  0.77987  Biso   1.000  C
  C29      1.0000 0.76986  0.68515  0.21940  Biso   1.000  C
  C30      1.0000 0.23014  0.31485  0.78060  Biso   1.000  C
  C31      1.0000 0.26986  0.81485  0.28060  Biso   1.000  C
  C32      1.0000 0.73014  0.18515  0.71940  Biso   1.000  C
  C33      1.0000 0.78367  0.46388  0.03771  Biso   1.000  C
  C34      1.0000 0.21633  0.53612  0.96229  Biso   1.000  C
  C35      1.0000 0.28367  0.03612  0.46229  Biso   1.000  C
  C36      1.0000 0.71633  0.96388  0.53771  Biso   1.000  C
  C37      1.0000 0.66759  0.75605  0.08399  Biso   1.000  C
  C38      1.0000 0.33241  0.24395  0.91601  Biso   1.000  C
  C39      1.0000 0.16759  0.74395  0.41601  Biso   1.000  C
  C40      1.0000 0.83241  0.25605  0.58399  Biso   1.000  C
  C41      1.0000 0.66691  0.82701  0.16084  Biso   1.000  C
  C42      1.0000 0.33309  0.17299  0.83916  Biso   1.000  C
  C43      1.0000 0.16691  0.67299  0.33916  Biso   1.000  C
  C44      1.0000 0.83309  0.32701  0.66084  Biso   1.000  C
  C45      1.0000 0.71530  0.79422  0.22651  Biso   1.000  C
  C46      1.0000 0.28470  0.20578  0.77349  Biso   1.000  C
  C47      1.0000 0.21530  0.70578  0.27349  Biso   1.000  C
  C48      1.0000 0.78470  0.29422  0.72651  Biso   1.000  C
  C49      1.0000 0.81786  0.34829  0.99505  Biso   1.000  C
  C50      1.0000 0.18214  0.65171  0.00495  Biso   1.000  C
  C51      1.0000 0.31786  0.15171  0.50495  Biso   1.000  C
  C52      1.0000 0.68214  0.84829  0.49505  Biso   1.000  C
  C53      1.0000 0.91776  0.32909  0.93958  Biso   1.000  C
  C54      1.0000 0.08224  0.67091  0.06042  Biso   1.000  C
  C55      1.0000 0.41776  0.17091  0.56042  Biso   1.000  C
  C56      1.0000 0.58224  0.82909  0.43958  Biso   1.000  C
  C57      1.0000 0.96099  0.21943  0.90639  Biso   1.000  C
  C58      1.0000 0.03901  0.78057  0.09361  Biso   1.000  C
  C59      1.0000 0.46099  0.28057  0.59361  Biso   1.000  C
  C60      1.0000 0.53901  0.71943  0.40639  Biso   1.000  C
  C61      1.0000 0.90610  0.12976  0.92894  Biso   1.000  C
  C62      1.0000 0.09390  0.87024  0.07106  Biso   1.000  C
  C63      1.0000 0.40610  0.37024  0.57106  Biso   1.000  C
  C64      1.0000 0.59390  0.62976  0.42894  Biso   1.000  C
  C65      1.0000 0.79904  0.14421  0.98306  Biso   1.000  C
  C66      1.0000 0.20096  0.85579  0.01694  Biso   1.000  C
  C67      1.0000 0.29904  0.35579  0.51694  Biso   1.000  C
  C68      1.0000 0.70096  0.64421  0.48306  Biso   1.000  C
  C69      1.0000 0.75209  0.25420  0.01559  Biso   1.000  C
  C70      1.0000 0.24791  0.74580  0.98441  Biso   1.000  C
  C71      1.0000 0.25209  0.24580  0.48441  Biso   1.000  C
  C72      1.0000 0.74791  0.75420  0.51559  Biso   1.000  C
  C73      1.0000 0.63930  0.26702  0.06564  Biso   1.000  C
  C74      1.0000 0.36070  0.73298  0.93436  Biso   1.000  C
  C75      1.0000 0.13930  0.23298  0.43436  Biso   1.000  C
  C76      1.0000 0.86070  0.76702  0.56564  Biso   1.000  C
  C77      1.0000 0.57790  0.17597  0.08325  Biso   1.000  C
  C78      1.0000 0.42210  0.82403  0.91675  Biso   1.000  C
  C79      1.0000 0.07790  0.32403  0.41675  Biso   1.000  C
  C80      1.0000 0.92210  0.67597  0.58325  Biso   1.000  C
  C81      1.0000 0.62700  0.06741  0.05304  Biso   1.000  C
  C82      1.0000 0.37300  0.93259  0.94696  Biso   1.000  C
  C83      1.0000 0.12700  0.43259  0.44696  Biso   1.000  C
  C84      1.0000 0.87300  0.56741  0.55304  Biso   1.000  C
  C85      1.0000 0.73430  0.05172  0.00427  Biso   1.000  C
  C86      1.0000 0.26570  0.94828  0.99573  Biso   1.000  C
  C87      1.0000 0.23430  0.44828  0.49573  Biso   1.000  C
  C88      1.0000 0.76570  0.55172  0.50427  Biso   1.000  C
  C89      1.0000 0.68573  0.54528  0.92607  Biso   1.000  C
  C90      1.0000 0.31427  0.45472  0.07393  Biso   1.000  C
  C91      1.0000 0.18573  0.95472  0.57393  Biso   1.000  C
  C92      1.0000 0.81427  0.04528  0.42607  Biso   1.000  C
  C93      1.0000 0.59244  0.46720  0.89303  Biso   1.000  C
  C94      1.0000 0.40756  0.53280  0.10697  Biso   1.000  C
  C95      1.0000 0.09244  0.03280  0.60697  Biso   1.000  C
  C96      1.0000 0.90756  0.96720  0.39303  Biso   1.000  C
  C97      1.0000 0.54325  0.46218  0.81604  Biso   1.000  C
  C98      1.0000 0.45675  0.53782  0.18396  Biso   1.000  C
  C99      1.0000 0.04325  0.03782  0.68396  Biso   1.000  C
  C100     1.0000 0.95675  0.96218  0.31604  Biso   1.000  C
  C101     1.0000 0.58663  0.53511  0.77232  Biso   1.000  C
  C102     1.0000 0.41337  0.46489  0.22768  Biso   1.000  C
  C103     1.0000 0.08663  0.96489  0.72768  Biso   1.000  C
  C104     1.0000 0.91337  0.03511  0.27232  Biso   1.000  C
  C105     1.0000 0.68349  0.61640  0.80279  Biso   1.000  C
  C106     1.0000 0.31651  0.38360  0.19721  Biso   1.000  C
  C107     1.0000 0.18349  0.88360  0.69721  Biso   1.000  C
  C108     1.0000 0.81651  0.11640  0.30279  Biso   1.000  C
  C109     1.0000 0.73481  0.62237  0.88041  Biso   1.000  C
  C110     1.0000 0.26519  0.37763  0.11959  Biso   1.000  C
  C111     1.0000 0.23481  0.87763  0.61959  Biso   1.000  C
  C112     1.0000 0.76519  0.12237  0.38041  Biso   1.000  C
  C113     1.0000 0.83485  0.70178  0.90859  Biso   1.000  C
  C114     1.0000 0.16515  0.29822  0.09141  Biso   1.000  C
  C115     1.0000 0.33485  0.79822  0.59141  Biso   1.000  C
  C116     1.0000 0.66515  0.20178  0.40859  Biso   1.000  C
  C117     1.0000 0.87890  0.77343  0.86352  Biso   1.000  C
  C118     1.0000 0.12110  0.22657  0.13648  Biso   1.000  C
  C119     1.0000 0.37890  0.72657  0.63648  Biso   1.000  C
  C120     1.0000 0.62110  0.27343  0.36352  Biso   1.000  C
  C121     1.0000 0.82660  0.76917  0.78752  Biso   1.000  C
  C122     1.0000 0.17340  0.23083  0.21248  Biso   1.000  C
  C123     1.0000 0.32660  0.73083  0.71248  Biso   1.000  C
  C124     1.0000 0.67340  0.26917  0.28752  Biso   1.000  C
  C125     1.0000 0.73210  0.69264  0.75819  Biso   1.000  C
  C126     1.0000 0.26790  0.30736  0.24181  Biso   1.000  C
  C127     1.0000 0.23210  0.80736  0.74181  Biso   1.000  C
  C128     1.0000 0.76790  0.19264  0.25819  Biso   1.000  C
