data_image0
_cell_length_a       11.6129
_cell_length_b       13.1278
_cell_length_c       16.2338
_cell_angle_alpha    102.068
_cell_angle_beta     90
_cell_angle_gamma    90

_symmetry_space_group_name_H-M    "P 1"
_symmetry_int_tables_number       1

loop_
  _symmetry_equiv_pos_as_xyz
  'x, y, z'

loop_
  _atom_site_label
  _atom_site_occupancy
  _atom_site_fract_x
  _atom_site_fract_y
  _atom_site_fract_z
  _atom_site_thermal_displace_type
  _atom_site_B_iso_or_equiv
  _atom_site_type_symbol
  H1       1.0000 0.63289  0.91279  0.94793  Biso   1.000  H
  H2       1.0000 0.36711  0.08721  0.05207  Biso   1.000  H
  H3       1.0000 0.13289  0.08721  0.55207  Biso   1.000  H
  H4       1.0000 0.86711  0.91279  0.44793  Biso   1.000  H
  H5       1.0000 0.51802  0.94710  0.07460  Biso   1.000  H
  H6       1.0000 0.48198  0.05290  0.92540  Biso   1.000  H
  H7       1.0000 0.01802  0.05290  0.42540  Biso   1.000  H
  H8       1.0000 0.98198  0.94710  0.57460  Biso   1.000  H
  H9       1.0000 0.31055  0.89712  0.14803  Biso   1.000  H
  H10      1.0000 0.68945  0.10288  0.85197  Biso   1.000  H
  H11      1.0000 0.81055  0.10288  0.35197  Biso   1.000  H
  H12      1.0000 0.18945  0.89712  0.64803  Biso   1.000  H
  H13      1.0000 0.13724  0.79264  0.12302  Biso   1.000  H
  H14      1.0000 0.86276  0.20736  0.87698  Biso   1.000  H
  H15      1.0000 0.63724  0.20736  0.37698  Biso   1.000  H
  H16      1.0000 0.36276  0.79264  0.62302  Biso   1.000  H
  H17      1.0000 0.01597  0.64722  0.00018  Biso   1.000  H
  H18      1.0000 0.98403  0.35278  0.99982  Biso   1.000  H
  H19      1.0000 0.51597  0.35278  0.49982  Biso   1.000  H
  H20      1.0000 0.48403  0.64722  0.50018  Biso   1.000  H
  H21      1.0000 0.02066  0.55478  0.85501  Biso   1.000  H
  H22      1.0000 0.97934  0.44522  0.14499  Biso   1.000  H
  H23      1.0000 0.52066  0.44522  0.64499  Biso   1.000  H
  H24      1.0000 0.47934  0.55478  0.35501  Biso   1.000  H
  H25      1.0000 0.15253  0.51622  0.70491  Biso   1.000  H
  H26      1.0000 0.84747  0.48378  0.29509  Biso   1.000  H
  H27      1.0000 0.65253  0.48378  0.79509  Biso   1.000  H
  H28      1.0000 0.34747  0.51622  0.20491  Biso   1.000  H
  H29      1.0000 0.33036  0.56171  0.64258  Biso   1.000  H
  H30      1.0000 0.66964  0.43829  0.35742  Biso   1.000  H
  H31      1.0000 0.83036  0.43829  0.85742  Biso   1.000  H
  H32      1.0000 0.16964  0.56171  0.14258  Biso   1.000  H
  H33      1.0000 0.54107  0.67378  0.67434  Biso   1.000  H
  H34      1.0000 0.45893  0.32622  0.32566  Biso   1.000  H
  H35      1.0000 0.04107  0.32622  0.82566  Biso   1.000  H
  H36      1.0000 0.95893  0.67378  0.17434  Biso   1.000  H
  H37      1.0000 0.64492  0.79585  0.78050  Biso   1.000  H
  H38      1.0000 0.35508  0.20415  0.21950  Biso   1.000  H
  H39      1.0000 0.14492  0.20415  0.71950  Biso   1.000  H
  H40      1.0000 0.85508  0.79585  0.28050  Biso   1.000  H
  H41      1.0000 0.55298  0.28987  0.76824  Biso   1.000  H
  H42      1.0000 0.44702  0.71013  0.23176  Biso   1.000  H
  H43      1.0000 0.05298  0.71013  0.73176  Biso   1.000  H
  H44      1.0000 0.94702  0.28987  0.26824  Biso   1.000  H
  H45      1.0000 0.46793  0.42548  0.87583  Biso   1.000  H
  H46      1.0000 0.53207  0.57452  0.12417  Biso   1.000  H
  H47      1.0000 0.96793  0.57452  0.62417  Biso   1.000  H
  H48      1.0000 0.03207  0.42548  0.37583  Biso   1.000  H
  H49      1.0000 0.31901  0.46145  0.01549  Biso   1.000  H
  H50      1.0000 0.68099  0.53855  0.98451  Biso   1.000  H
  H51      1.0000 0.81901  0.53855  0.48451  Biso   1.000  H
  H52      1.0000 0.18099  0.46145  0.51549  Biso   1.000  H
  H53      1.0000 0.19363  0.37686  0.10043  Biso   1.000  H
  H54      1.0000 0.80637  0.62314  0.89957  Biso   1.000  H
  H55      1.0000 0.69363  0.62314  0.39957  Biso   1.000  H
  H56      1.0000 0.30637  0.37686  0.60043  Biso   1.000  H
  H57      1.0000 0.10237  0.18656  0.11941  Biso   1.000  H
  H58      1.0000 0.89763  0.81344  0.88059  Biso   1.000  H
  H59      1.0000 0.60237  0.81344  0.38059  Biso   1.000  H
  H60      1.0000 0.39763  0.18656  0.61941  Biso   1.000  H
  H61      1.0000 0.10693  0.00049  0.06362  Biso   1.000  H
  H62      1.0000 0.89307  0.99951  0.93638  Biso   1.000  H
  H63      1.0000 0.60693  0.99951  0.43638  Biso   1.000  H
  H64      1.0000 0.39307  0.00049  0.56362  Biso   1.000  H
  H65      1.0000 0.19942  0.84245  0.93528  Biso   1.000  H
  H66      1.0000 0.80058  0.15755  0.06472  Biso   1.000  H
  H67      1.0000 0.69942  0.15755  0.56472  Biso   1.000  H
  H68      1.0000 0.30058  0.84245  0.43528  Biso   1.000  H
  H69      1.0000 0.32951  0.80994  0.81601  Biso   1.000  H
  H70      1.0000 0.67049  0.19006  0.18399  Biso   1.000  H
  H71      1.0000 0.82951  0.19006  0.68399  Biso   1.000  H
  H72      1.0000 0.17049  0.80994  0.31601  Biso   1.000  H
  H73      1.0000 0.48467  0.90820  0.72264  Biso   1.000  H
  H74      1.0000 0.51533  0.09180  0.27736  Biso   1.000  H
  H75      1.0000 0.98467  0.09180  0.77736  Biso   1.000  H
  H76      1.0000 0.01533  0.90820  0.22264  Biso   1.000  H
  H77      1.0000 0.55994  0.07415  0.70575  Biso   1.000  H
  H78      1.0000 0.44006  0.92585  0.29425  Biso   1.000  H
  H79      1.0000 0.05994  0.92585  0.79425  Biso   1.000  H
  H80      1.0000 0.94006  0.07415  0.20575  Biso   1.000  H
  C1       1.0000 0.56906  0.85510  0.95658  Biso   1.000  C
  C2       1.0000 0.43094  0.14490  0.04342  Biso   1.000  C
  C3       1.0000 0.06906  0.14490  0.54342  Biso   1.000  C
  C4       1.0000 0.93094  0.85510  0.45658  Biso   1.000  C
  C5       1.0000 0.50354  0.87457  0.02920  Biso   1.000  C
  C6       1.0000 0.49646  0.12543  0.97080  Biso   1.000  C
  C7       1.0000 0.00354  0.12543  0.47080  Biso   1.000  C
  C8       1.0000 0.99646  0.87457  0.52920  Biso   1.000  C
  C9       1.0000 0.40992  0.80693  0.04240  Biso   1.000  C
  C10      1.0000 0.59008  0.19307  0.95760  Biso   1.000  C
  C11      1.0000 0.90992  0.19307  0.45760  Biso   1.000  C
  C12      1.0000 0.09008  0.80693  0.54240  Biso   1.000  C
  C13      1.0000 0.40398  0.71486  0.98324  Biso   1.000  C
  C14      1.0000 0.59602  0.28514  0.01676  Biso   1.000  C
  C15      1.0000 0.90398  0.28514  0.51676  Biso   1.000  C
  C16      1.0000 0.09602  0.71486  0.48324  Biso   1.000  C
  C17      1.0000 0.31092  0.82814  0.09718  Biso   1.000  C
  C18      1.0000 0.68908  0.17186  0.90282  Biso   1.000  C
  C19      1.0000 0.81092  0.17186  0.40282  Biso   1.000  C
  C20      1.0000 0.18908  0.82814  0.59718  Biso   1.000  C
  C21      1.0000 0.21189  0.76849  0.08296  Biso   1.000  C
  C22      1.0000 0.78811  0.23151  0.91704  Biso   1.000  C
  C23      1.0000 0.71189  0.23151  0.41704  Biso   1.000  C
  C24      1.0000 0.28811  0.76849  0.58296  Biso   1.000  C
  C25      1.0000 0.20111  0.68200  0.01170  Biso   1.000  C
  C26      1.0000 0.79889  0.31800  0.98830  Biso   1.000  C
  C27      1.0000 0.70111  0.31800  0.48830  Biso   1.000  C
  C28      1.0000 0.29889  0.68200  0.51170  Biso   1.000  C
  C29      1.0000 0.30216  0.65512  0.96779  Biso   1.000  C
  C30      1.0000 0.69784  0.34488  0.03221  Biso   1.000  C
  C31      1.0000 0.80216  0.34488  0.53221  Biso   1.000  C
  C32      1.0000 0.19784  0.65512  0.46779  Biso   1.000  C
  C33      1.0000 0.09929  0.63435  0.96884  Biso   1.000  C
  C34      1.0000 0.90071  0.36565  0.03116  Biso   1.000  C
  C35      1.0000 0.59929  0.36565  0.53116  Biso   1.000  C
  C36      1.0000 0.40071  0.63435  0.46884  Biso   1.000  C
  C37      1.0000 0.10200  0.58098  0.88574  Biso   1.000  C
  C38      1.0000 0.89800  0.41902  0.11426  Biso   1.000  C
  C39      1.0000 0.60200  0.41902  0.61426  Biso   1.000  C
  C40      1.0000 0.39800  0.58098  0.38574  Biso   1.000  C
  C41      1.0000 0.20706  0.56781  0.83676  Biso   1.000  C
  C42      1.0000 0.79294  0.43219  0.16324  Biso   1.000  C
  C43      1.0000 0.70706  0.43219  0.66324  Biso   1.000  C
  C44      1.0000 0.29294  0.56781  0.33676  Biso   1.000  C
  C45      1.0000 0.30479  0.59942  0.88312  Biso   1.000  C
  C46      1.0000 0.69521  0.40058  0.11688  Biso   1.000  C
  C47      1.0000 0.80479  0.40058  0.61688  Biso   1.000  C
  C48      1.0000 0.19521  0.59942  0.38312  Biso   1.000  C
  C49      1.0000 0.22399  0.54672  0.74645  Biso   1.000  C
  C50      1.0000 0.77601  0.45328  0.25355  Biso   1.000  C
  C51      1.0000 0.72399  0.45328  0.75355  Biso   1.000  C
  C52      1.0000 0.27601  0.54672  0.24645  Biso   1.000  C
  C53      1.0000 0.32611  0.57140  0.71092  Biso   1.000  C
  C54      1.0000 0.67389  0.42860  0.28908  Biso   1.000  C
  C55      1.0000 0.82611  0.42860  0.78908  Biso   1.000  C
  C56      1.0000 0.17389  0.57140  0.21092  Biso   1.000  C
  C57      1.0000 0.42209  0.61874  0.76148  Biso   1.000  C
  C58      1.0000 0.57791  0.38126  0.23852  Biso   1.000  C
  C59      1.0000 0.92209  0.38126  0.73852  Biso   1.000  C
  C60      1.0000 0.07791  0.61874  0.26148  Biso   1.000  C
  C61      1.0000 0.40943  0.62391  0.84673  Biso   1.000  C
  C62      1.0000 0.59057  0.37609  0.15327  Biso   1.000  C
  C63      1.0000 0.90943  0.37609  0.65327  Biso   1.000  C
  C64      1.0000 0.09057  0.62391  0.34673  Biso   1.000  C
  C65      1.0000 0.51823  0.67889  0.74029  Biso   1.000  C
  C66      1.0000 0.48177  0.32111  0.25971  Biso   1.000  C
  C67      1.0000 0.01823  0.32111  0.75971  Biso   1.000  C
  C68      1.0000 0.98177  0.67889  0.24029  Biso   1.000  C
  C69      1.0000 0.57780  0.74856  0.80093  Biso   1.000  C
  C70      1.0000 0.42220  0.25144  0.19907  Biso   1.000  C
  C71      1.0000 0.07780  0.25144  0.69907  Biso   1.000  C
  C72      1.0000 0.92220  0.74856  0.30093  Biso   1.000  C
  C73      1.0000 0.54818  0.76594  0.88927  Biso   1.000  C
  C74      1.0000 0.45182  0.23406  0.11073  Biso   1.000  C
  C75      1.0000 0.04818  0.23406  0.61073  Biso   1.000  C
  C76      1.0000 0.95182  0.76594  0.38927  Biso   1.000  C
  C77      1.0000 0.47064  0.69512  0.90870  Biso   1.000  C
  C78      1.0000 0.52936  0.30488  0.09130  Biso   1.000  C
  C79      1.0000 0.97064  0.30488  0.59130  Biso   1.000  C
  C80      1.0000 0.02936  0.69512  0.40870  Biso   1.000  C
  C81      1.0000 0.47128  0.27421  0.79632  Biso   1.000  C
  C82      1.0000 0.52872  0.72579  0.20368  Biso   1.000  C
  C83      1.0000 0.97128  0.72579  0.70368  Biso   1.000  C
  C84      1.0000 0.02872  0.27421  0.29632  Biso   1.000  C
  C85      1.0000 0.42294  0.35129  0.85778  Biso   1.000  C
  C86      1.0000 0.57706  0.64871  0.14222  Biso   1.000  C
  C87      1.0000 0.92294  0.64871  0.64222  Biso   1.000  C
  C88      1.0000 0.07706  0.35129  0.35778  Biso   1.000  C
  C89      1.0000 0.32194  0.33254  0.90472  Biso   1.000  C
  C90      1.0000 0.67806  0.66746  0.09528  Biso   1.000  C
  C91      1.0000 0.82194  0.66746  0.59528  Biso   1.000  C
  C92      1.0000 0.17806  0.33254  0.40472  Biso   1.000  C
  C93      1.0000 0.26775  0.23905  0.87386  Biso   1.000  C
  C94      1.0000 0.73225  0.76095  0.12614  Biso   1.000  C
  C95      1.0000 0.76775  0.76095  0.62614  Biso   1.000  C
  C96      1.0000 0.23225  0.23905  0.37386  Biso   1.000  C
  C97      1.0000 0.28335  0.38522  0.98747  Biso   1.000  C
  C98      1.0000 0.71665  0.61478  0.01253  Biso   1.000  C
  C99      1.0000 0.78335  0.61478  0.51253  Biso   1.000  C
  C100     1.0000 0.21665  0.38522  0.48747  Biso   1.000  C
  C101     1.0000 0.21122  0.33746  0.03561  Biso   1.000  C
  C102     1.0000 0.78878  0.66254  0.96439  Biso   1.000  C
  C103     1.0000 0.71122  0.66254  0.46439  Biso   1.000  C
  C104     1.0000 0.28878  0.33746  0.53561  Biso   1.000  C
  C105     1.0000 0.16925  0.23266  0.00625  Biso   1.000  C
  C106     1.0000 0.83075  0.76734  0.99375  Biso   1.000  C
  C107     1.0000 0.66925  0.76734  0.49375  Biso   1.000  C
  C108     1.0000 0.33075  0.23266  0.50625  Biso   1.000  C
  C109     1.0000 0.19297  0.19054  0.92283  Biso   1.000  C
  C110     1.0000 0.80703  0.80946  0.07717  Biso   1.000  C
  C111     1.0000 0.69297  0.80946  0.57717  Biso   1.000  C
  C112     1.0000 0.30703  0.19054  0.42283  Biso   1.000  C
  C113     1.0000 0.12808  0.15876  0.05404  Biso   1.000  C
  C114     1.0000 0.87192  0.84124  0.94596  Biso   1.000  C
  C115     1.0000 0.62808  0.84124  0.44596  Biso   1.000  C
  C116     1.0000 0.37192  0.15876  0.55404  Biso   1.000  C
  C117     1.0000 0.13081  0.05253  0.02219  Biso   1.000  C
  C118     1.0000 0.86919  0.94747  0.97781  Biso   1.000  C
  C119     1.0000 0.63081  0.94747  0.47781  Biso   1.000  C
  C120     1.0000 0.36919  0.05253  0.52219  Biso   1.000  C
  C121     1.0000 0.17458  0.00930  0.93884  Biso   1.000  C
  C122     1.0000 0.82542  0.99070  0.06116  Biso   1.000  C
  C123     1.0000 0.67458  0.99070  0.56116  Biso   1.000  C
  C124     1.0000 0.32542  0.00930  0.43884  Biso   1.000  C
  C125     1.0000 0.19598  0.08181  0.89029  Biso   1.000  C
  C126     1.0000 0.80402  0.91819  0.10971  Biso   1.000  C
  C127     1.0000 0.69598  0.91819  0.60971  Biso   1.000  C
  C128     1.0000 0.30402  0.08181  0.39029  Biso   1.000  C
  C129     1.0000 0.21961  0.90631  0.90442  Biso   1.000  C
  C130     1.0000 0.78039  0.09369  0.09558  Biso   1.000  C
  C131     1.0000 0.71961  0.09369  0.59558  Biso   1.000  C
  C132     1.0000 0.28039  0.90631  0.40442  Biso   1.000  C
  C133     1.0000 0.29382  0.88778  0.83628  Biso   1.000  C
  C134     1.0000 0.70618  0.11222  0.16372  Biso   1.000  C
  C135     1.0000 0.79382  0.11222  0.66372  Biso   1.000  C
  C136     1.0000 0.20618  0.88778  0.33628  Biso   1.000  C
  C137     1.0000 0.33121  0.97021  0.79563  Biso   1.000  C
  C138     1.0000 0.66879  0.02979  0.20437  Biso   1.000  C
  C139     1.0000 0.83121  0.02979  0.70437  Biso   1.000  C
  C140     1.0000 0.16879  0.97021  0.29563  Biso   1.000  C
  C141     1.0000 0.27230  0.06294  0.82065  Biso   1.000  C
  C142     1.0000 0.72770  0.93706  0.17935  Biso   1.000  C
  C143     1.0000 0.77230  0.93706  0.67935  Biso   1.000  C
  C144     1.0000 0.22770  0.06294  0.32065  Biso   1.000  C
  C145     1.0000 0.43420  0.97794  0.74724  Biso   1.000  C
  C146     1.0000 0.56580  0.02206  0.25276  Biso   1.000  C
  C147     1.0000 0.93420  0.02206  0.75276  Biso   1.000  C
  C148     1.0000 0.06580  0.97794  0.24724  Biso   1.000  C
  C149     1.0000 0.47786  0.07287  0.73788  Biso   1.000  C
  C150     1.0000 0.52214  0.92713  0.26212  Biso   1.000  C
  C151     1.0000 0.97786  0.92713  0.76212  Biso   1.000  C
  C152     1.0000 0.02214  0.07287  0.23788  Biso   1.000  C
  C153     1.0000 0.42305  0.17032  0.77539  Biso   1.000  C
  C154     1.0000 0.57695  0.82968  0.22461  Biso   1.000  C
  C155     1.0000 0.92305  0.82968  0.72461  Biso   1.000  C
  C156     1.0000 0.07695  0.17032  0.27539  Biso   1.000  C
  C157     1.0000 0.31680  0.16004  0.81079  Biso   1.000  C
  C158     1.0000 0.68320  0.83996  0.18921  Biso   1.000  C
  C159     1.0000 0.81680  0.83996  0.68921  Biso   1.000  C
  C160     1.0000 0.18320  0.16004  0.31079  Biso   1.000  C
