data_image0
_cell_length_a       7.716
_cell_length_b       11.1718
_cell_length_c       22.5538
_cell_angle_alpha    92.11
_cell_angle_beta     99.101
_cell_angle_gamma    102.127

_symmetry_space_group_name_H-M    "P 1"
_symmetry_int_tables_number       1

loop_
  _symmetry_equiv_pos_as_xyz
  'x, y, z'

loop_
  _atom_site_label
  _atom_site_occupancy
  _atom_site_fract_x
  _atom_site_fract_y
  _atom_site_fract_z
  _atom_site_thermal_displace_type
  _atom_site_B_iso_or_equiv
  _atom_site_type_symbol
  H1       1.0000 0.84828  0.45961  0.47304  Biso   1.000  H
  H2       1.0000 0.15172  0.54039  0.52696  Biso   1.000  H
  H3       1.0000 0.91229  0.58977  0.56727  Biso   1.000  H
  H4       1.0000 0.08771  0.41023  0.43273  Biso   1.000  H
  H5       1.0000 0.75932  0.76020  0.57752  Biso   1.000  H
  H6       1.0000 0.24068  0.23980  0.42248  Biso   1.000  H
  H7       1.0000 0.53628  0.79925  0.49465  Biso   1.000  H
  H8       1.0000 0.46372  0.20075  0.50535  Biso   1.000  H
  H9       1.0000 0.50863  0.90346  0.36648  Biso   1.000  H
  H10      1.0000 0.49137  0.09654  0.63352  Biso   1.000  H
  H11      1.0000 0.34604  0.06543  0.38168  Biso   1.000  H
  H12      1.0000 0.65396  0.93457  0.61832  Biso   1.000  H
  H13      1.0000 0.06405  0.01907  0.42357  Biso   1.000  H
  H14      1.0000 0.93595  0.98093  0.57643  Biso   1.000  H
  H15      1.0000 0.94194  0.80628  0.44558  Biso   1.000  H
  H16      1.0000 0.05806  0.19372  0.55442  Biso   1.000  H
  H17      1.0000 0.10309  0.64517  0.42891  Biso   1.000  H
  H18      1.0000 0.89691  0.35483  0.57109  Biso   1.000  H
  H19      1.0000 0.16121  0.66934  0.29573  Biso   1.000  H
  H20      1.0000 0.83879  0.33066  0.70427  Biso   1.000  H
  H21      1.0000 0.17472  0.78780  0.20065  Biso   1.000  H
  H22      1.0000 0.82528  0.21220  0.79935  Biso   1.000  H
  H23      1.0000 0.01194  0.94184  0.23039  Biso   1.000  H
  H24      1.0000 0.98806  0.05816  0.76961  Biso   1.000  H
  H25      1.0000 0.69791  0.87770  0.24642  Biso   1.000  H
  H26      1.0000 0.30209  0.12230  0.75358  Biso   1.000  H
  H27      1.0000 0.54058  0.66052  0.22717  Biso   1.000  H
  H28      1.0000 0.45942  0.33948  0.77283  Biso   1.000  H
  H29      1.0000 0.70239  0.50627  0.19794  Biso   1.000  H
  H30      1.0000 0.29761  0.49373  0.80206  Biso   1.000  H
  H31      1.0000 0.94205  0.67476  0.09808  Biso   1.000  H
  H32      1.0000 0.05795  0.32524  0.90192  Biso   1.000  H
  H33      1.0000 0.76177  0.71149  0.00465  Biso   1.000  H
  H34      1.0000 0.23823  0.28851  0.99535  Biso   1.000  H
  H35      1.0000 0.60648  0.53782  0.93074  Biso   1.000  H
  H36      1.0000 0.39352  0.46218  0.06926  Biso   1.000  H
  H37      1.0000 0.54288  0.32366  0.89815  Biso   1.000  H
  H38      1.0000 0.45712  0.67634  0.10185  Biso   1.000  H
  H39      1.0000 0.57753  0.11443  0.91541  Biso   1.000  H
  H40      1.0000 0.42247  0.88557  0.08459  Biso   1.000  H
  H41      1.0000 0.70051  0.96941  0.97851  Biso   1.000  H
  H42      1.0000 0.29949  0.03059  0.02149  Biso   1.000  H
  H43      1.0000 0.88212  0.92613  0.07243  Biso   1.000  H
  H44      1.0000 0.11788  0.07387  0.92757  Biso   1.000  H
  H45      1.0000 0.04945  0.09250  0.14457  Biso   1.000  H
  H46      1.0000 0.95055  0.90750  0.85543  Biso   1.000  H
  H47      1.0000 0.41990  0.28865  0.10237  Biso   1.000  H
  H48      1.0000 0.58010  0.71135  0.89763  Biso   1.000  H
  H49      1.0000 0.60323  0.13513  0.10321  Biso   1.000  H
  H50      1.0000 0.39677  0.86487  0.89679  Biso   1.000  H
  H51      1.0000 0.60396  0.98937  0.18133  Biso   1.000  H
  H52      1.0000 0.39604  0.01063  0.81867  Biso   1.000  H
  H53      1.0000 0.41581  0.99642  0.26040  Biso   1.000  H
  H54      1.0000 0.58419  0.00358  0.73960  Biso   1.000  H
  H55      1.0000 0.23121  0.15173  0.26036  Biso   1.000  H
  H56      1.0000 0.76879  0.84827  0.73964  Biso   1.000  H
  H57      1.0000 0.49381  0.34395  0.26995  Biso   1.000  H
  H58      1.0000 0.50619  0.65605  0.73005  Biso   1.000  H
  H59      1.0000 0.85795  0.47463  0.30172  Biso   1.000  H
  H60      1.0000 0.14205  0.52537  0.69828  Biso   1.000  H
  H61      1.0000 0.00363  0.30779  0.27955  Biso   1.000  H
  H62      1.0000 0.99637  0.69221  0.72045  Biso   1.000  H
  H63      1.0000 0.94351  0.11495  0.32991  Biso   1.000  H
  H64      1.0000 0.05649  0.88505  0.67009  Biso   1.000  H
  H65      1.0000 0.74074  0.09445  0.40519  Biso   1.000  H
  H66      1.0000 0.25926  0.90555  0.59481  Biso   1.000  H
  H67      1.0000 0.59078  0.26011  0.42578  Biso   1.000  H
  H68      1.0000 0.40922  0.73989  0.57422  Biso   1.000  H
  C1       1.0000 0.64950  0.55129  0.42800  Biso   1.000  C
  C2       1.0000 0.35050  0.44871  0.57200  Biso   1.000  C
  C3       1.0000 0.78020  0.53456  0.47758  Biso   1.000  C
  C4       1.0000 0.21980  0.46544  0.52242  Biso   1.000  C
  C5       1.0000 0.81550  0.60616  0.52945  Biso   1.000  C
  C6       1.0000 0.18450  0.39384  0.47055  Biso   1.000  C
  C7       1.0000 0.72710  0.70300  0.53540  Biso   1.000  C
  C8       1.0000 0.27290  0.29700  0.46460  Biso   1.000  C
  C9       1.0000 0.60340  0.72365  0.48992  Biso   1.000  C
  C10      1.0000 0.39660  0.27635  0.51008  Biso   1.000  C
  C11      1.0000 0.55500  0.64836  0.43491  Biso   1.000  C
  C12      1.0000 0.44500  0.35164  0.56509  Biso   1.000  C
  C13      1.0000 0.41850  0.66455  0.38925  Biso   1.000  C
  C14      1.0000 0.58150  0.33545  0.61075  Biso   1.000  C
  C15      1.0000 0.31790  0.76341  0.39741  Biso   1.000  C
  C16      1.0000 0.68210  0.23659  0.60259  Biso   1.000  C
  C17      1.0000 0.38250  0.88130  0.38397  Biso   1.000  C
  C18      1.0000 0.61750  0.11870  0.61603  Biso   1.000  C
  C19      1.0000 0.29070  0.97240  0.39275  Biso   1.000  C
  C20      1.0000 0.70930  0.02760  0.60725  Biso   1.000  C
  C21      1.0000 0.13430  0.94650  0.41543  Biso   1.000  C
  C22      1.0000 0.86570  0.05350  0.58457  Biso   1.000  C
  C23      1.0000 0.06720  0.82960  0.42781  Biso   1.000  C
  C24      1.0000 0.93280  0.17040  0.57219  Biso   1.000  C
  C25      1.0000 0.15900  0.73850  0.41866  Biso   1.000  C
  C26      1.0000 0.84100  0.26150  0.58134  Biso   1.000  C
  C27      1.0000 0.37290  0.58648  0.33589  Biso   1.000  C
  C28      1.0000 0.62710  0.41352  0.66411  Biso   1.000  C
  C29      1.0000 0.23370  0.59756  0.28958  Biso   1.000  C
  C30      1.0000 0.76630  0.40244  0.71042  Biso   1.000  C
  C31      1.0000 0.18470  0.52096  0.23686  Biso   1.000  C
  C32      1.0000 0.81530  0.47904  0.76314  Biso   1.000  C
  C33      1.0000 0.04760  0.53596  0.18795  Biso   1.000  C
  C34      1.0000 0.95240  0.46404  0.81205  Biso   1.000  C
  C35      1.0000 0.95020  0.63551  0.19845  Biso   1.000  C
  C36      1.0000 0.04980  0.36449  0.80155  Biso   1.000  C
  C37      1.0000 0.03510  0.75870  0.20687  Biso   1.000  C
  C38      1.0000 0.96490  0.24130  0.79313  Biso   1.000  C
  C39      1.0000 0.94290  0.84550  0.22326  Biso   1.000  C
  C40      1.0000 0.05710  0.15450  0.77674  Biso   1.000  C
  C41      1.0000 0.76730  0.80970  0.23137  Biso   1.000  C
  C42      1.0000 0.23270  0.19030  0.76863  Biso   1.000  C
  C43      1.0000 0.68040  0.68920  0.22138  Biso   1.000  C
  C44      1.0000 0.31960  0.31080  0.77862  Biso   1.000  C
  C45      1.0000 0.77150  0.60270  0.20512  Biso   1.000  C
  C46      1.0000 0.22850  0.39730  0.79488  Biso   1.000  C
  C47      1.0000 0.00160  0.45435  0.13749  Biso   1.000  C
  C48      1.0000 0.99840  0.54565  0.86251  Biso   1.000  C
  C49      1.0000 0.89330  0.47901  0.08062  Biso   1.000  C
  C50      1.0000 0.10670  0.52099  0.91938  Biso   1.000  C
  C51      1.0000 0.87410  0.59650  0.06706  Biso   1.000  C
  C52      1.0000 0.12590  0.40350  0.93294  Biso   1.000  C
  C53      1.0000 0.77310  0.61790  0.01338  Biso   1.000  C
  C54      1.0000 0.22690  0.38210  0.98662  Biso   1.000  C
  C55      1.0000 0.69030  0.52300  0.97232  Biso   1.000  C
  C56      1.0000 0.30970  0.47700  0.02768  Biso   1.000  C
  C57      1.0000 0.71110  0.40470  0.98185  Biso   1.000  C
  C58      1.0000 0.28890  0.59530  0.01815  Biso   1.000  C
  C59      1.0000 0.81750  0.38208  0.03596  Biso   1.000  C
  C60      1.0000 0.18250  0.61792  0.96404  Biso   1.000  C
  C61      1.0000 0.62630  0.30440  0.93891  Biso   1.000  C
  C62      1.0000 0.37370  0.69560  0.06109  Biso   1.000  C
  C63      1.0000 0.64540  0.19050  0.94817  Biso   1.000  C
  C64      1.0000 0.35460  0.80950  0.05183  Biso   1.000  C
  C65      1.0000 0.75460  0.16300  0.00133  Biso   1.000  C
  C66      1.0000 0.24540  0.83700  0.99867  Biso   1.000  C
  C67      1.0000 0.77200  0.04370  0.01188  Biso   1.000  C
  C68      1.0000 0.22800  0.95630  0.98812  Biso   1.000  C
  C69      1.0000 0.87360  0.02000  0.06314  Biso   1.000  C
  C70      1.0000 0.12640  0.98000  0.93686  Biso   1.000  C
  C71      1.0000 0.97040  0.11559  0.10428  Biso   1.000  C
  C72      1.0000 0.02960  0.88441  0.89572  Biso   1.000  C
  C73      1.0000 0.96470  0.23743  0.09527  Biso   1.000  C
  C74      1.0000 0.03530  0.76257  0.90473  Biso   1.000  C
  C75      1.0000 0.84630  0.26083  0.04453  Biso   1.000  C
  C76      1.0000 0.15370  0.73917  0.95547  Biso   1.000  C
  C77      1.0000 0.06550  0.34032  0.13885  Biso   1.000  C
  C78      1.0000 0.93450  0.65968  0.86115  Biso   1.000  C
  C79      1.0000 0.21050  0.33081  0.18173  Biso   1.000  C
  C80      1.0000 0.78950  0.66919  0.81827  Biso   1.000  C
  C81      1.0000 0.31090  0.23027  0.18053  Biso   1.000  C
  C82      1.0000 0.68910  0.76973  0.81947  Biso   1.000  C
  C83      1.0000 0.41710  0.22372  0.13726  Biso   1.000  C
  C84      1.0000 0.58290  0.77628  0.86274  Biso   1.000  C
  C85      1.0000 0.52030  0.13770  0.13781  Biso   1.000  C
  C86      1.0000 0.47970  0.86230  0.86219  Biso   1.000  C
  C87      1.0000 0.52040  0.05680  0.18140  Biso   1.000  C
  C88      1.0000 0.47960  0.94320  0.81860  Biso   1.000  C
  C89      1.0000 0.41660  0.06060  0.22510  Biso   1.000  C
  C90      1.0000 0.58340  0.93940  0.77490  Biso   1.000  C
  C91      1.0000 0.31220  0.14776  0.22511  Biso   1.000  C
  C92      1.0000 0.68780  0.85224  0.77489  Biso   1.000  C
  C93      1.0000 0.27740  0.42315  0.23049  Biso   1.000  C
  C94      1.0000 0.72260  0.57685  0.76951  Biso   1.000  C
  C95      1.0000 0.42070  0.41561  0.27520  Biso   1.000  C
  C96      1.0000 0.57930  0.58439  0.72480  Biso   1.000  C
  C97      1.0000 0.47180  0.49291  0.32802  Biso   1.000  C
  C98      1.0000 0.52820  0.50709  0.67198  Biso   1.000  C
  C99      1.0000 0.61160  0.47717  0.37433  Biso   1.000  C
  C100     1.0000 0.38840  0.52283  0.62567  Biso   1.000  C
  C101     1.0000 0.71090  0.37858  0.36451  Biso   1.000  C
  C102     1.0000 0.28910  0.62142  0.63549  Biso   1.000  C
  C103     1.0000 0.82980  0.39000  0.32436  Biso   1.000  C
  C104     1.0000 0.17020  0.61000  0.67564  Biso   1.000  C
  C105     1.0000 0.91230  0.29590  0.31213  Biso   1.000  C
  C106     1.0000 0.08770  0.70410  0.68787  Biso   1.000  C
  C107     1.0000 0.87940  0.18980  0.34009  Biso   1.000  C
  C108     1.0000 0.12060  0.81020  0.65991  Biso   1.000  C
  C109     1.0000 0.76610  0.17780  0.38126  Biso   1.000  C
  C110     1.0000 0.23390  0.82220  0.61874  Biso   1.000  C
  C111     1.0000 0.68170  0.27101  0.39310  Biso   1.000  C
  C112     1.0000 0.31830  0.72899  0.60690  Biso   1.000  C
