data_image0
_cell_length_a       11.4616
_cell_length_b       12.8653
_cell_length_c       14.7649
_cell_angle_alpha    97.696
_cell_angle_beta     98.263
_cell_angle_gamma    114.376

_symmetry_space_group_name_H-M    "P 1"
_symmetry_int_tables_number       1

loop_
  _symmetry_equiv_pos_as_xyz
  'x, y, z'

loop_
  _atom_site_label
  _atom_site_occupancy
  _atom_site_fract_x
  _atom_site_fract_y
  _atom_site_fract_z
  _atom_site_thermal_displace_type
  _atom_site_B_iso_or_equiv
  _atom_site_type_symbol
  H1       1.0000 0.57224  0.14614  0.80887  Biso   1.000  H
  H2       1.0000 0.42776  0.85386  0.19113  Biso   1.000  H
  H3       1.0000 0.58024  0.02718  0.66882  Biso   1.000  H
  H4       1.0000 0.41976  0.97282  0.33118  Biso   1.000  H
  H5       1.0000 0.92925  0.48435  0.33835  Biso   1.000  H
  H6       1.0000 0.07075  0.51565  0.66165  Biso   1.000  H
  H7       1.0000 0.92578  0.58918  0.48805  Biso   1.000  H
  H8       1.0000 0.07422  0.41082  0.51195  Biso   1.000  H
  H9       1.0000 0.93071  0.67665  0.61924  Biso   1.000  H
  H10      1.0000 0.06929  0.32335  0.38076  Biso   1.000  H
  H11      1.0000 0.93424  0.80398  0.75954  Biso   1.000  H
  H12      1.0000 0.06576  0.19602  0.24046  Biso   1.000  H
  H13      1.0000 0.00744  0.40536  0.17818  Biso   1.000  H
  H14      1.0000 0.99256  0.59464  0.82182  Biso   1.000  H
  H15      1.0000 0.12948  0.37676  0.05894  Biso   1.000  H
  H16      1.0000 0.87052  0.62324  0.94106  Biso   1.000  H
  H17      1.0000 0.36841  0.49922  0.08253  Biso   1.000  H
  H18      1.0000 0.63159  0.50078  0.91747  Biso   1.000  H
  H19      1.0000 0.49121  0.65493  0.22571  Biso   1.000  H
  H20      1.0000 0.50879  0.34507  0.77429  Biso   1.000  H
  H21      1.0000 0.56973  0.81830  0.39410  Biso   1.000  H
  H22      1.0000 0.43027  0.18170  0.60590  Biso   1.000  H
  H23      1.0000 0.57811  0.93380  0.54243  Biso   1.000  H
  H24      1.0000 0.42189  0.06620  0.45757  Biso   1.000  H
  H25      1.0000 0.48124  0.25642  0.94266  Biso   1.000  H
  H26      1.0000 0.51876  0.74358  0.05734  Biso   1.000  H
  H27      1.0000 0.34946  0.31492  0.03860  Biso   1.000  H
  H28      1.0000 0.65054  0.68508  0.96140  Biso   1.000  H
  H29      1.0000 0.11182  0.18917  0.01864  Biso   1.000  H
  H30      1.0000 0.88818  0.81083  0.98136  Biso   1.000  H
  H31      1.0000 0.00077  0.00191  0.90212  Biso   1.000  H
  H32      1.0000 0.99923  0.99809  0.09788  Biso   1.000  H
  H33      1.0000 0.34505  0.23581  0.17241  Biso   1.000  H
  H34      1.0000 0.65495  0.76419  0.82759  Biso   1.000  H
  H35      1.0000 0.36909  0.38347  0.30580  Biso   1.000  H
  H36      1.0000 0.63091  0.61653  0.69420  Biso   1.000  H
  H37      1.0000 0.16571  0.21674  0.78971  Biso   1.000  H
  H38      1.0000 0.83429  0.78326  0.21029  Biso   1.000  H
  H39      1.0000 0.13775  0.06932  0.65478  Biso   1.000  H
  H40      1.0000 0.86225  0.93068  0.34522  Biso   1.000  H
  H41      1.0000 0.10396  0.94642  0.53485  Biso   1.000  H
  H42      1.0000 0.89604  0.05358  0.46515  Biso   1.000  H
  H43      1.0000 0.07630  0.80730  0.39386  Biso   1.000  H
  H44      1.0000 0.92370  0.19270  0.60614  Biso   1.000  H
  H45      1.0000 0.21302  0.42736  0.90934  Biso   1.000  H
  H46      1.0000 0.78698  0.57264  0.09066  Biso   1.000  H
  H47      1.0000 0.27234  0.63286  0.98268  Biso   1.000  H
  H48      1.0000 0.72766  0.36714  0.01732  Biso   1.000  H
  H49      1.0000 0.36459  0.79135  0.89808  Biso   1.000  H
  H50      1.0000 0.63541  0.20865  0.10192  Biso   1.000  H
  H51      1.0000 0.39773  0.74821  0.73792  Biso   1.000  H
  H52      1.0000 0.60227  0.25179  0.26208  Biso   1.000  H
  H53      1.0000 0.40612  0.64340  0.56018  Biso   1.000  H
  H54      1.0000 0.59388  0.35660  0.43982  Biso   1.000  H
  H55      1.0000 0.38024  0.50422  0.41993  Biso   1.000  H
  H56      1.0000 0.61976  0.49578  0.58007  Biso   1.000  H
  H57      1.0000 0.28346  0.02110  0.04761  Biso   1.000  H
  H58      1.0000 0.71654  0.97890  0.95239  Biso   1.000  H
  H59      1.0000 0.19955  0.81356  0.96894  Biso   1.000  H
  H60      1.0000 0.80045  0.18644  0.03106  Biso   1.000  H
  H61      1.0000 0.09813  0.65559  0.05197  Biso   1.000  H
  H62      1.0000 0.90187  0.34441  0.94803  Biso   1.000  H
  H63      1.0000 0.07286  0.70086  0.21438  Biso   1.000  H
  H64      1.0000 0.92714  0.29914  0.78562  Biso   1.000  H
  C1       1.0000 0.25465  0.87145  0.66336  Biso   1.000  C
  C2       1.0000 0.74535  0.12855  0.33664  Biso   1.000  C
  C3       1.0000 0.25361  0.94047  0.74357  Biso   1.000  C
  C4       1.0000 0.74639  0.05953  0.25643  Biso   1.000  C
  C5       1.0000 0.13963  0.92176  0.77882  Biso   1.000  C
  C6       1.0000 0.86037  0.07824  0.22118  Biso   1.000  C
  C7       1.0000 0.17876  0.02201  0.85671  Biso   1.000  C
  C8       1.0000 0.82124  0.97799  0.14329  Biso   1.000  C
  C9       1.0000 0.31549  0.09472  0.86801  Biso   1.000  C
  C10      1.0000 0.68451  0.90528  0.13199  Biso   1.000  C
  C11      1.0000 0.36436  0.04205  0.79673  Biso   1.000  C
  C12      1.0000 0.63564  0.95795  0.20327  Biso   1.000  C
  C13      1.0000 0.48228  0.07037  0.77058  Biso   1.000  C
  C14      1.0000 0.51772  0.92963  0.22942  Biso   1.000  C
  C15      1.0000 0.48666  0.00097  0.68954  Biso   1.000  C
  C16      1.0000 0.51334  0.99903  0.31046  Biso   1.000  C
  C17      1.0000 0.37631  0.90461  0.63411  Biso   1.000  C
  C18      1.0000 0.62369  0.09539  0.36589  Biso   1.000  C
  C19      1.0000 0.37542  0.83696  0.54619  Biso   1.000  C
  C20      1.0000 0.62458  0.16304  0.45381  Biso   1.000  C
  C21      1.0000 0.25294  0.74209  0.49606  Biso   1.000  C
  C22      1.0000 0.74706  0.25791  0.50394  Biso   1.000  C
  C23      1.0000 0.25109  0.68034  0.41066  Biso   1.000  C
  C24      1.0000 0.74891  0.31966  0.58934  Biso   1.000  C
  C25      1.0000 0.36330  0.70416  0.37207  Biso   1.000  C
  C26      1.0000 0.63670  0.29584  0.62793  Biso   1.000  C
  C27      1.0000 0.31855  0.61891  0.28244  Biso   1.000  C
  C28      1.0000 0.68145  0.38109  0.71756  Biso   1.000  C
  C29      1.0000 0.18094  0.54743  0.26973  Biso   1.000  C
  C30      1.0000 0.81906  0.45257  0.73027  Biso   1.000  C
  C31      1.0000 0.13751  0.58652  0.35177  Biso   1.000  C
  C32      1.0000 0.86249  0.41348  0.64823  Biso   1.000  C
  C33      1.0000 0.02066  0.55522  0.38027  Biso   1.000  C
  C34      1.0000 0.97934  0.44478  0.61973  Biso   1.000  C
  C35      1.0000 0.01934  0.61602  0.46727  Biso   1.000  C
  C36      1.0000 0.98066  0.38398  0.53273  Biso   1.000  C
  C37      1.0000 0.13152  0.70711  0.52609  Biso   1.000  C
  C38      1.0000 0.86848  0.29289  0.47391  Biso   1.000  C
  C39      1.0000 0.13318  0.77393  0.61498  Biso   1.000  C
  C40      1.0000 0.86682  0.22607  0.38502  Biso   1.000  C
  C41      1.0000 0.02305  0.75197  0.65336  Biso   1.000  C
  C42      1.0000 0.97695  0.24803  0.34664  Biso   1.000  C
  C43      1.0000 0.02449  0.82530  0.73452  Biso   1.000  C
  C44      1.0000 0.97551  0.17470  0.26548  Biso   1.000  C
  C45      1.0000 0.11270  0.46020  0.18928  Biso   1.000  C
  C46      1.0000 0.88730  0.53980  0.81072  Biso   1.000  C
  C47      1.0000 0.18199  0.44443  0.12255  Biso   1.000  C
  C48      1.0000 0.81801  0.55557  0.87745  Biso   1.000  C
  C49      1.0000 0.31658  0.51326  0.13575  Biso   1.000  C
  C50      1.0000 0.68342  0.48674  0.86425  Biso   1.000  C
  C51      1.0000 0.38586  0.60128  0.21590  Biso   1.000  C
  C52      1.0000 0.61414  0.39872  0.78410  Biso   1.000  C
  C53      1.0000 0.48064  0.79486  0.42073  Biso   1.000  C
  C54      1.0000 0.51936  0.20514  0.57927  Biso   1.000  C
  C55      1.0000 0.48500  0.86060  0.50655  Biso   1.000  C
  C56      1.0000 0.51500  0.13940  0.49345  Biso   1.000  C
  C57      1.0000 0.37709  0.19950  0.93366  Biso   1.000  C
  C58      1.0000 0.62291  0.80050  0.06634  Biso   1.000  C
  C59      1.0000 0.30190  0.23241  0.98722  Biso   1.000  C
  C60      1.0000 0.69810  0.76759  0.01278  Biso   1.000  C
  C61      1.0000 0.16859  0.16188  0.97613  Biso   1.000  C
  C62      1.0000 0.83141  0.83812  0.02387  Biso   1.000  C
  C63      1.0000 0.10558  0.05587  0.91094  Biso   1.000  C
  C64      1.0000 0.89442  0.94413  0.08906  Biso   1.000  C
  C65      1.0000 0.23205  0.14428  0.40016  Biso   1.000  C
  C66      1.0000 0.76795  0.85572  0.59984  Biso   1.000  C
  C67      1.0000 0.21670  0.06270  0.32222  Biso   1.000  C
  C68      1.0000 0.78330  0.93730  0.67778  Biso   1.000  C
  C69      1.0000 0.16145  0.94078  0.31689  Biso   1.000  C
  C70      1.0000 0.83855  0.05922  0.68311  Biso   1.000  C
  C71      1.0000 0.16278  0.88717  0.22260  Biso   1.000  C
  C72      1.0000 0.83722  0.11283  0.77740  Biso   1.000  C
  C73      1.0000 0.22233  0.97913  0.17542  Biso   1.000  C
  C74      1.0000 0.77767  0.02087  0.82458  Biso   1.000  C
  C75      1.0000 0.25602  0.09129  0.23876  Biso   1.000  C
  C76      1.0000 0.74398  0.90871  0.76124  Biso   1.000  C
  C77      1.0000 0.31181  0.20751  0.23416  Biso   1.000  C
  C78      1.0000 0.68819  0.79249  0.76584  Biso   1.000  C
  C79      1.0000 0.32648  0.29257  0.31210  Biso   1.000  C
  C80      1.0000 0.67352  0.70743  0.68790  Biso   1.000  C
  C81      1.0000 0.28834  0.26461  0.39469  Biso   1.000  C
  C82      1.0000 0.71166  0.73539  0.60531  Biso   1.000  C
  C83      1.0000 0.30236  0.35015  0.47661  Biso   1.000  C
  C84      1.0000 0.69764  0.64985  0.52339  Biso   1.000  C
  C85      1.0000 0.26387  0.30756  0.55741  Biso   1.000  C
  C86      1.0000 0.73613  0.69244  0.44259  Biso   1.000  C
  C87      1.0000 0.27969  0.38933  0.63581  Biso   1.000  C
  C88      1.0000 0.72031  0.61067  0.36419  Biso   1.000  C
  C89      1.0000 0.32935  0.51046  0.63969  Biso   1.000  C
  C90      1.0000 0.67065  0.48954  0.36031  Biso   1.000  C
  C91      1.0000 0.32527  0.56303  0.73316  Biso   1.000  C
  C92      1.0000 0.67473  0.43697  0.26684  Biso   1.000  C
  C93      1.0000 0.27341  0.47167  0.78239  Biso   1.000  C
  C94      1.0000 0.72659  0.52833  0.21761  Biso   1.000  C
  C95      1.0000 0.24523  0.36053  0.72049  Biso   1.000  C
  C96      1.0000 0.75477  0.63947  0.27951  Biso   1.000  C
  C97      1.0000 0.19538  0.24490  0.72695  Biso   1.000  C
  C98      1.0000 0.80462  0.75510  0.27305  Biso   1.000  C
  C99      1.0000 0.17882  0.16014  0.64844  Biso   1.000  C
  C100     1.0000 0.82118  0.83986  0.35156  Biso   1.000  C
  C101     1.0000 0.20935  0.18721  0.56368  Biso   1.000  C
  C102     1.0000 0.79065  0.81279  0.43632  Biso   1.000  C
  C103     1.0000 0.19043  0.10114  0.48059  Biso   1.000  C
  C104     1.0000 0.80957  0.89886  0.51941  Biso   1.000  C
  C105     1.0000 0.13701  0.98098  0.47508  Biso   1.000  C
  C106     1.0000 0.86299  0.01902  0.52492  Biso   1.000  C
  C107     1.0000 0.12135  0.90002  0.39393  Biso   1.000  C
  C108     1.0000 0.87865  0.09998  0.60607  Biso   1.000  C
  C109     1.0000 0.25421  0.49687  0.87179  Biso   1.000  C
  C110     1.0000 0.74579  0.50313  0.12821  Biso   1.000  C
  C111     1.0000 0.28710  0.61241  0.91243  Biso   1.000  C
  C112     1.0000 0.71290  0.38759  0.08757  Biso   1.000  C
  C113     1.0000 0.33848  0.70147  0.86473  Biso   1.000  C
  C114     1.0000 0.66152  0.29853  0.13527  Biso   1.000  C
  C115     1.0000 0.35789  0.67779  0.77468  Biso   1.000  C
  C116     1.0000 0.64211  0.32221  0.22532  Biso   1.000  C
  C117     1.0000 0.36556  0.55099  0.56117  Biso   1.000  C
  C118     1.0000 0.63444  0.44901  0.43883  Biso   1.000  C
  C119     1.0000 0.35097  0.47022  0.48082  Biso   1.000  C
  C120     1.0000 0.64903  0.52978  0.51918  Biso   1.000  C
  C121     1.0000 0.23676  0.95236  0.08430  Biso   1.000  C
  C122     1.0000 0.76324  0.04764  0.91570  Biso   1.000  C
  C123     1.0000 0.19076  0.83517  0.04080  Biso   1.000  C
  C124     1.0000 0.80924  0.16483  0.95920  Biso   1.000  C
  C125     1.0000 0.13283  0.74650  0.08719  Biso   1.000  C
  C126     1.0000 0.86717  0.25350  0.91281  Biso   1.000  C
  C127     1.0000 0.11859  0.77123  0.17876  Biso   1.000  C
  C128     1.0000 0.88141  0.22877  0.82124  Biso   1.000  C
