data_image0
_cell_length_a       7.444
_cell_length_b       14.263
_cell_length_c       23.962
_cell_angle_alpha    103.9
_cell_angle_beta     90
_cell_angle_gamma    90

_symmetry_space_group_name_H-M    "P 1"
_symmetry_int_tables_number       1

loop_
  _symmetry_equiv_pos_as_xyz
  'x, y, z'

loop_
  _atom_site_label
  _atom_site_occupancy
  _atom_site_fract_x
  _atom_site_fract_y
  _atom_site_fract_z
  _atom_site_thermal_displace_type
  _atom_site_B_iso_or_equiv
  _atom_site_type_symbol
  H1       1.0000 0.13022  0.09150  0.09313  Biso   1.000  H
  H2       1.0000 0.86978  0.90850  0.90687  Biso   1.000  H
  H3       1.0000 0.63022  0.40850  0.40687  Biso   1.000  H
  H4       1.0000 0.36978  0.59150  0.59313  Biso   1.000  H
  H5       1.0000 0.06310  0.25454  0.08039  Biso   1.000  H
  H6       1.0000 0.93690  0.74546  0.91961  Biso   1.000  H
  H7       1.0000 0.56310  0.24546  0.41961  Biso   1.000  H
  H8       1.0000 0.43690  0.75454  0.58039  Biso   1.000  H
  H9       1.0000 0.13022  0.29610  0.99025  Biso   1.000  H
  H10      1.0000 0.86978  0.70390  0.00975  Biso   1.000  H
  H11      1.0000 0.63022  0.20390  0.50975  Biso   1.000  H
  H12      1.0000 0.36978  0.79610  0.49025  Biso   1.000  H
  H13      1.0000 0.19001  0.32548  0.91839  Biso   1.000  H
  H14      1.0000 0.80999  0.67452  0.08161  Biso   1.000  H
  H15      1.0000 0.69001  0.17452  0.58161  Biso   1.000  H
  H16      1.0000 0.30999  0.82548  0.41839  Biso   1.000  H
  H17      1.0000 0.24301  0.36013  0.82682  Biso   1.000  H
  H18      1.0000 0.75699  0.63987  0.17318  Biso   1.000  H
  H19      1.0000 0.74301  0.13987  0.67318  Biso   1.000  H
  H20      1.0000 0.25699  0.86013  0.32682  Biso   1.000  H
  H21      1.0000 0.49888  0.39653  0.80290  Biso   1.000  H
  H22      1.0000 0.50112  0.60347  0.19710  Biso   1.000  H
  H23      1.0000 0.99888  0.10347  0.69710  Biso   1.000  H
  H24      1.0000 0.00112  0.89653  0.30290  Biso   1.000  H
  H25      1.0000 0.53520  0.55813  0.78588  Biso   1.000  H
  H26      1.0000 0.46480  0.44187  0.21412  Biso   1.000  H
  H27      1.0000 0.03520  0.94187  0.71412  Biso   1.000  H
  H28      1.0000 0.96480  0.05813  0.28588  Biso   1.000  H
  H29      1.0000 0.45186  0.58820  0.69145  Biso   1.000  H
  H30      1.0000 0.54814  0.41180  0.30855  Biso   1.000  H
  H31      1.0000 0.95186  0.91180  0.80855  Biso   1.000  H
  H32      1.0000 0.04814  0.08820  0.19145  Biso   1.000  H
  H33      1.0000 0.34236  0.45426  0.61450  Biso   1.000  H
  H34      1.0000 0.65764  0.54574  0.38550  Biso   1.000  H
  H35      1.0000 0.84236  0.04574  0.88550  Biso   1.000  H
  H36      1.0000 0.15764  0.95426  0.11450  Biso   1.000  H
  H37      1.0000 0.19764  0.35505  0.56282  Biso   1.000  H
  H38      1.0000 0.80236  0.64495  0.43718  Biso   1.000  H
  H39      1.0000 0.69764  0.14495  0.93718  Biso   1.000  H
  H40      1.0000 0.30236  0.85505  0.06282  Biso   1.000  H
  H41      1.0000 0.10448  0.29609  0.46537  Biso   1.000  H
  H42      1.0000 0.89552  0.70391  0.53463  Biso   1.000  H
  H43      1.0000 0.60448  0.20391  0.03463  Biso   1.000  H
  H44      1.0000 0.39552  0.79609  0.96537  Biso   1.000  H
  H45      1.0000 0.07041  0.16089  0.37881  Biso   1.000  H
  H46      1.0000 0.92959  0.83911  0.62119  Biso   1.000  H
  H47      1.0000 0.57041  0.33911  0.12119  Biso   1.000  H
  H48      1.0000 0.42959  0.66089  0.87881  Biso   1.000  H
  H49      1.0000 0.13807  0.99442  0.38542  Biso   1.000  H
  H50      1.0000 0.86193  0.00558  0.61458  Biso   1.000  H
  H51      1.0000 0.63807  0.50558  0.11458  Biso   1.000  H
  H52      1.0000 0.36193  0.49442  0.88542  Biso   1.000  H
  H53      1.0000 0.23154  0.96003  0.47555  Biso   1.000  H
  H54      1.0000 0.76846  0.03997  0.52445  Biso   1.000  H
  H55      1.0000 0.73154  0.53997  0.02445  Biso   1.000  H
  H56      1.0000 0.26846  0.46003  0.97555  Biso   1.000  H
  H57      1.0000 0.26069  0.93742  0.55369  Biso   1.000  H
  H58      1.0000 0.73931  0.06258  0.44631  Biso   1.000  H
  H59      1.0000 0.76069  0.56258  0.94631  Biso   1.000  H
  H60      1.0000 0.23931  0.43742  0.05369  Biso   1.000  H
  H61      1.0000 0.33823  0.91032  0.64512  Biso   1.000  H
  H62      1.0000 0.66177  0.08968  0.35488  Biso   1.000  H
  H63      1.0000 0.83823  0.58968  0.85488  Biso   1.000  H
  H64      1.0000 0.16177  0.41032  0.14512  Biso   1.000  H
  H65      1.0000 0.60004  0.90558  0.67001  Biso   1.000  H
  H66      1.0000 0.39996  0.09442  0.32999  Biso   1.000  H
  H67      1.0000 0.10004  0.59442  0.82999  Biso   1.000  H
  H68      1.0000 0.89996  0.40558  0.17001  Biso   1.000  H
  H69      1.0000 0.70553  0.75151  0.68635  Biso   1.000  H
  H70      1.0000 0.29447  0.24849  0.31365  Biso   1.000  H
  H71      1.0000 0.20553  0.74849  0.81365  Biso   1.000  H
  H72      1.0000 0.79447  0.25151  0.18635  Biso   1.000  H
  H73      1.0000 0.66689  0.71567  0.78186  Biso   1.000  H
  H74      1.0000 0.33311  0.28433  0.21814  Biso   1.000  H
  H75      1.0000 0.16689  0.78433  0.71814  Biso   1.000  H
  H76      1.0000 0.83311  0.21567  0.28186  Biso   1.000  H
  H77      1.0000 0.52384  0.83472  0.86041  Biso   1.000  H
  H78      1.0000 0.47616  0.16528  0.13959  Biso   1.000  H
  H79      1.0000 0.02384  0.66528  0.63959  Biso   1.000  H
  H80      1.0000 0.97616  0.33472  0.36041  Biso   1.000  H
  H81      1.0000 0.36853  0.91993  0.91611  Biso   1.000  H
  H82      1.0000 0.63147  0.08007  0.08389  Biso   1.000  H
  H83      1.0000 0.86853  0.58007  0.58389  Biso   1.000  H
  H84      1.0000 0.13147  0.41993  0.41611  Biso   1.000  H
  H85      1.0000 0.26046  0.96798  0.01325  Biso   1.000  H
  H86      1.0000 0.73954  0.03202  0.98675  Biso   1.000  H
  H87      1.0000 0.76046  0.53202  0.48675  Biso   1.000  H
  H88      1.0000 0.23954  0.46798  0.51325  Biso   1.000  H
  C1       1.0000 0.16180  0.10920  0.05250  Biso   1.000  C
  C2       1.0000 0.83820  0.89080  0.94750  Biso   1.000  C
  C3       1.0000 0.66180  0.39080  0.44750  Biso   1.000  C
  C4       1.0000 0.33820  0.60920  0.55250  Biso   1.000  C
  C5       1.0000 0.12540  0.20090  0.04560  Biso   1.000  C
  C6       1.0000 0.87460  0.79910  0.95440  Biso   1.000  C
  C7       1.0000 0.62540  0.29910  0.45440  Biso   1.000  C
  C8       1.0000 0.37460  0.70090  0.54560  Biso   1.000  C
  C9       1.0000 0.16370  0.22410  0.99480  Biso   1.000  C
  C10      1.0000 0.83630  0.77590  0.00520  Biso   1.000  C
  C11      1.0000 0.66370  0.27590  0.50520  Biso   1.000  C
  C12      1.0000 0.33630  0.72410  0.49480  Biso   1.000  C
  C13      1.0000 0.24090  0.15620  0.94820  Biso   1.000  C
  C14      1.0000 0.75910  0.84380  0.05180  Biso   1.000  C
  C15      1.0000 0.74090  0.34380  0.55180  Biso   1.000  C
  C16      1.0000 0.25910  0.65620  0.44820  Biso   1.000  C
  C17      1.0000 0.28330  0.17660  0.89420  Biso   1.000  C
  C18      1.0000 0.71670  0.82340  0.10580  Biso   1.000  C
  C19      1.0000 0.78330  0.32340  0.60580  Biso   1.000  C
  C20      1.0000 0.21670  0.67660  0.39420  Biso   1.000  C
  C21      1.0000 0.25000  0.26990  0.88450  Biso   1.000  C
  C22      1.0000 0.75000  0.73010  0.11550  Biso   1.000  C
  C23      1.0000 0.75000  0.23010  0.61550  Biso   1.000  C
  C24      1.0000 0.25000  0.76990  0.38450  Biso   1.000  C
  C25      1.0000 0.28090  0.28990  0.83310  Biso   1.000  C
  C26      1.0000 0.71910  0.71010  0.16690  Biso   1.000  C
  C27      1.0000 0.78090  0.21010  0.66690  Biso   1.000  C
  C28      1.0000 0.21910  0.78990  0.33310  Biso   1.000  C
  C29      1.0000 0.34480  0.21860  0.78510  Biso   1.000  C
  C30      1.0000 0.65520  0.78140  0.21490  Biso   1.000  C
  C31      1.0000 0.84480  0.28140  0.71490  Biso   1.000  C
  C32      1.0000 0.15520  0.71860  0.28510  Biso   1.000  C
  C33      1.0000 0.36040  0.23640  0.72960  Biso   1.000  C
  C34      1.0000 0.63960  0.76360  0.27040  Biso   1.000  C
  C35      1.0000 0.86040  0.26360  0.77040  Biso   1.000  C
  C36      1.0000 0.13960  0.73640  0.22960  Biso   1.000  C
  C37      1.0000 0.37960  0.33360  0.72010  Biso   1.000  C
  C38      1.0000 0.62040  0.66640  0.27990  Biso   1.000  C
  C39      1.0000 0.87960  0.16640  0.77990  Biso   1.000  C
  C40      1.0000 0.12040  0.83360  0.22010  Biso   1.000  C
  C41      1.0000 0.45290  0.41020  0.76260  Biso   1.000  C
  C42      1.0000 0.54710  0.58980  0.23740  Biso   1.000  C
  C43      1.0000 0.95290  0.08980  0.73740  Biso   1.000  C
  C44      1.0000 0.04710  0.91020  0.26260  Biso   1.000  C
  C45      1.0000 0.47700  0.50060  0.75250  Biso   1.000  C
  C46      1.0000 0.52300  0.49940  0.24750  Biso   1.000  C
  C47      1.0000 0.97700  0.99940  0.74750  Biso   1.000  C
  C48      1.0000 0.02300  0.00060  0.25250  Biso   1.000  C
  C49      1.0000 0.43180  0.51700  0.69960  Biso   1.000  C
  C50      1.0000 0.56820  0.48300  0.30040  Biso   1.000  C
  C51      1.0000 0.93180  0.98300  0.80040  Biso   1.000  C
  C52      1.0000 0.06820  0.01700  0.19960  Biso   1.000  C
  C53      1.0000 0.36760  0.44230  0.65690  Biso   1.000  C
  C54      1.0000 0.63240  0.55770  0.34310  Biso   1.000  C
  C55      1.0000 0.86760  0.05770  0.84310  Biso   1.000  C
  C56      1.0000 0.13240  0.94230  0.15690  Biso   1.000  C
  C57      1.0000 0.34060  0.34990  0.66620  Biso   1.000  C
  C58      1.0000 0.65940  0.65010  0.33380  Biso   1.000  C
  C59      1.0000 0.84060  0.15010  0.83380  Biso   1.000  C
  C60      1.0000 0.15940  0.84990  0.16620  Biso   1.000  C
  C61      1.0000 0.28840  0.26930  0.61890  Biso   1.000  C
  C62      1.0000 0.71160  0.73070  0.38110  Biso   1.000  C
  C63      1.0000 0.78840  0.23070  0.88110  Biso   1.000  C
  C64      1.0000 0.21160  0.76930  0.11890  Biso   1.000  C
  C65      1.0000 0.22510  0.28260  0.56790  Biso   1.000  C
  C66      1.0000 0.77490  0.71740  0.43210  Biso   1.000  C
  C67      1.0000 0.72510  0.21740  0.93210  Biso   1.000  C
  C68      1.0000 0.27490  0.78260  0.06790  Biso   1.000  C
  C69      1.0000 0.19440  0.20490  0.51960  Biso   1.000  C
  C70      1.0000 0.80560  0.79510  0.48040  Biso   1.000  C
  C71      1.0000 0.69440  0.29510  0.98040  Biso   1.000  C
  C72      1.0000 0.30560  0.70490  0.01960  Biso   1.000  C
  C73      1.0000 0.13500  0.22200  0.46700  Biso   1.000  C
  C74      1.0000 0.86500  0.77800  0.53300  Biso   1.000  C
  C75      1.0000 0.63500  0.27800  0.03300  Biso   1.000  C
  C76      1.0000 0.36500  0.72200  0.96700  Biso   1.000  C
  C77      1.0000 0.11610  0.14740  0.41940  Biso   1.000  C
  C78      1.0000 0.88390  0.85260  0.58060  Biso   1.000  C
  C79      1.0000 0.61610  0.35260  0.08060  Biso   1.000  C
  C80      1.0000 0.38390  0.64740  0.91940  Biso   1.000  C
  C81      1.0000 0.15380  0.05390  0.42320  Biso   1.000  C
  C82      1.0000 0.84620  0.94610  0.57680  Biso   1.000  C
  C83      1.0000 0.65380  0.44610  0.07680  Biso   1.000  C
  C84      1.0000 0.34620  0.55390  0.92320  Biso   1.000  C
  C85      1.0000 0.20700  0.03450  0.47410  Biso   1.000  C
  C86      1.0000 0.79300  0.96550  0.52590  Biso   1.000  C
  C87      1.0000 0.70700  0.46550  0.02590  Biso   1.000  C
  C88      1.0000 0.29300  0.53450  0.97410  Biso   1.000  C
  C89      1.0000 0.22760  0.10940  0.52390  Biso   1.000  C
  C90      1.0000 0.77240  0.89060  0.47610  Biso   1.000  C
  C91      1.0000 0.72760  0.39060  0.97610  Biso   1.000  C
  C92      1.0000 0.27240  0.60940  0.02390  Biso   1.000  C
  C93      1.0000 0.28060  0.09380  0.57880  Biso   1.000  C
  C94      1.0000 0.71940  0.90620  0.42120  Biso   1.000  C
  C95      1.0000 0.78060  0.40620  0.92120  Biso   1.000  C
  C96      1.0000 0.21940  0.59380  0.07880  Biso   1.000  C
  C97      1.0000 0.29520  0.99950  0.58820  Biso   1.000  C
  C98      1.0000 0.70480  0.00050  0.41180  Biso   1.000  C
  C99      1.0000 0.79520  0.50050  0.91180  Biso   1.000  C
  C100     1.0000 0.20480  0.49950  0.08820  Biso   1.000  C
  C101     1.0000 0.34010  0.98390  0.63990  Biso   1.000  C
  C102     1.0000 0.65990  0.01610  0.36010  Biso   1.000  C
  C103     1.0000 0.84010  0.51610  0.86010  Biso   1.000  C
  C104     1.0000 0.15990  0.48390  0.13990  Biso   1.000  C
  C105     1.0000 0.37420  0.06140  0.68900  Biso   1.000  C
  C106     1.0000 0.62580  0.93860  0.31100  Biso   1.000  C
  C107     1.0000 0.87420  0.43860  0.81100  Biso   1.000  C
  C108     1.0000 0.12580  0.56140  0.18900  Biso   1.000  C
  C109     1.0000 0.41200  0.04700  0.74410  Biso   1.000  C
  C110     1.0000 0.58800  0.95300  0.25590  Biso   1.000  C
  C111     1.0000 0.91200  0.45300  0.75590  Biso   1.000  C
  C112     1.0000 0.08800  0.54700  0.24410  Biso   1.000  C
  C113     1.0000 0.47780  0.95490  0.75360  Biso   1.000  C
  C114     1.0000 0.52220  0.04510  0.24640  Biso   1.000  C
  C115     1.0000 0.97780  0.54510  0.74640  Biso   1.000  C
  C116     1.0000 0.02220  0.45490  0.25360  Biso   1.000  C
  C117     1.0000 0.57070  0.88790  0.71070  Biso   1.000  C
  C118     1.0000 0.42930  0.11210  0.28930  Biso   1.000  C
  C119     1.0000 0.07070  0.61210  0.78930  Biso   1.000  C
  C120     1.0000 0.92930  0.38790  0.21070  Biso   1.000  C
  C121     1.0000 0.63320  0.80220  0.72010  Biso   1.000  C
  C122     1.0000 0.36680  0.19780  0.27990  Biso   1.000  C
  C123     1.0000 0.13320  0.69780  0.77990  Biso   1.000  C
  C124     1.0000 0.86680  0.30220  0.22010  Biso   1.000  C
  C125     1.0000 0.61180  0.78230  0.77420  Biso   1.000  C
  C126     1.0000 0.38820  0.21770  0.22580  Biso   1.000  C
  C127     1.0000 0.11180  0.71770  0.72580  Biso   1.000  C
  C128     1.0000 0.88820  0.28230  0.27420  Biso   1.000  C
  C129     1.0000 0.53000  0.84850  0.81770  Biso   1.000  C
  C130     1.0000 0.47000  0.15150  0.18230  Biso   1.000  C
  C131     1.0000 0.03000  0.65150  0.68230  Biso   1.000  C
  C132     1.0000 0.97000  0.34850  0.31770  Biso   1.000  C
  C133     1.0000 0.46110  0.93590  0.80860  Biso   1.000  C
  C134     1.0000 0.53890  0.06410  0.19140  Biso   1.000  C
  C135     1.0000 0.96110  0.56410  0.69140  Biso   1.000  C
  C136     1.0000 0.03890  0.43590  0.30860  Biso   1.000  C
  C137     1.0000 0.38380  0.00920  0.85620  Biso   1.000  C
  C138     1.0000 0.61620  0.99080  0.14380  Biso   1.000  C
  C139     1.0000 0.88380  0.49080  0.64380  Biso   1.000  C
  C140     1.0000 0.11620  0.50920  0.35620  Biso   1.000  C
  C141     1.0000 0.34580  0.99140  0.90870  Biso   1.000  C
  C142     1.0000 0.65420  0.00860  0.09130  Biso   1.000  C
  C143     1.0000 0.84580  0.50860  0.59130  Biso   1.000  C
  C144     1.0000 0.15420  0.49140  0.40870  Biso   1.000  C
  C145     1.0000 0.27420  0.06200  0.95510  Biso   1.000  C
  C146     1.0000 0.72580  0.93800  0.04490  Biso   1.000  C
  C147     1.0000 0.77420  0.43800  0.54490  Biso   1.000  C
  C148     1.0000 0.22580  0.56200  0.45510  Biso   1.000  C
  C149     1.0000 0.23440  0.04080  0.00840  Biso   1.000  C
  C150     1.0000 0.76560  0.95920  0.99160  Biso   1.000  C
  C151     1.0000 0.73440  0.45920  0.49160  Biso   1.000  C
  C152     1.0000 0.26560  0.54080  0.50840  Biso   1.000  C
  C153     1.0000 0.35040  0.10420  0.84820  Biso   1.000  C
  C154     1.0000 0.64960  0.89580  0.15180  Biso   1.000  C
  C155     1.0000 0.85040  0.39580  0.65180  Biso   1.000  C
  C156     1.0000 0.14960  0.60420  0.34820  Biso   1.000  C
  C157     1.0000 0.37340  0.12320  0.79240  Biso   1.000  C
  C158     1.0000 0.62660  0.87680  0.20760  Biso   1.000  C
  C159     1.0000 0.87340  0.37680  0.70760  Biso   1.000  C
  C160     1.0000 0.12660  0.62320  0.29240  Biso   1.000  C
  C161     1.0000 0.35190  0.15760  0.68180  Biso   1.000  C
  C162     1.0000 0.64810  0.84240  0.31820  Biso   1.000  C
  C163     1.0000 0.85190  0.34240  0.81820  Biso   1.000  C
  C164     1.0000 0.14810  0.65760  0.18180  Biso   1.000  C
  C165     1.0000 0.30980  0.17270  0.62560  Biso   1.000  C
  C166     1.0000 0.69020  0.82730  0.37440  Biso   1.000  C
  C167     1.0000 0.80980  0.32730  0.87440  Biso   1.000  C
  C168     1.0000 0.19020  0.67270  0.12560  Biso   1.000  C
