data_image0
_cell_length_a       6.038
_cell_length_b       8.562
_cell_length_c       9.45327
_cell_angle_alpha    103.427
_cell_angle_beta     90
_cell_angle_gamma    90

_symmetry_space_group_name_H-M    "P 1"
_symmetry_int_tables_number       1

loop_
  _symmetry_equiv_pos_as_xyz
  'x, y, z'

loop_
  _atom_site_label
  _atom_site_occupancy
  _atom_site_fract_x
  _atom_site_fract_y
  _atom_site_fract_z
  _atom_site_thermal_displace_type
  _atom_site_B_iso_or_equiv
  _atom_site_type_symbol
  H1       1.0000 0.08580  0.66006  0.52677  Biso   1.000  H
  H2       1.0000 0.91420  0.33994  0.47323  Biso   1.000  H
  H3       1.0000 0.58580  0.83994  0.47323  Biso   1.000  H
  H4       1.0000 0.41420  0.16006  0.52677  Biso   1.000  H
  H5       1.0000 0.31840  0.86995  0.68191  Biso   1.000  H
  H6       1.0000 0.68160  0.13005  0.31809  Biso   1.000  H
  H7       1.0000 0.81840  0.63005  0.31809  Biso   1.000  H
  H8       1.0000 0.18160  0.36995  0.68191  Biso   1.000  H
  H9       1.0000 0.37042  0.07177  0.91512  Biso   1.000  H
  H10      1.0000 0.62958  0.92823  0.08488  Biso   1.000  H
  H11      1.0000 0.87042  0.42823  0.08488  Biso   1.000  H
  H12      1.0000 0.12958  0.57177  0.91512  Biso   1.000  H
  H13      1.0000 0.57990  0.72531  0.85469  Biso   1.000  H
  H14      1.0000 0.42010  0.27469  0.14531  Biso   1.000  H
  H15      1.0000 0.07990  0.77469  0.14531  Biso   1.000  H
  H16      1.0000 0.92010  0.22531  0.85469  Biso   1.000  H
  H17      1.0000 0.72051  0.58635  0.61356  Biso   1.000  H
  H18      1.0000 0.27949  0.41365  0.38644  Biso   1.000  H
  H19      1.0000 0.22051  0.91365  0.38644  Biso   1.000  H
  H20      1.0000 0.77949  0.08635  0.61356  Biso   1.000  H
  C1       1.0000 0.02712  0.72166  0.63438  Biso   1.000  C
  C2       1.0000 0.97288  0.27834  0.36562  Biso   1.000  C
  C3       1.0000 0.52712  0.77834  0.36562  Biso   1.000  C
  C4       1.0000 0.47288  0.22166  0.63438  Biso   1.000  C
  C5       1.0000 0.15775  0.83803  0.71928  Biso   1.000  C
  C6       1.0000 0.84225  0.16197  0.28072  Biso   1.000  C
  C7       1.0000 0.65775  0.66197  0.28072  Biso   1.000  C
  C8       1.0000 0.34225  0.33803  0.71928  Biso   1.000  C
  C9       1.0000 0.08030  0.92048  0.86184  Biso   1.000  C
  C10      1.0000 0.91970  0.07952  0.13816  Biso   1.000  C
  C11      1.0000 0.58030  0.57952  0.13816  Biso   1.000  C
  C12      1.0000 0.41970  0.42048  0.86184  Biso   1.000  C
  C13      1.0000 0.20936  0.04048  0.95262  Biso   1.000  C
  C14      1.0000 0.79064  0.95952  0.04738  Biso   1.000  C
  C15      1.0000 0.70936  0.45952  0.04738  Biso   1.000  C
  C16      1.0000 0.29064  0.54048  0.95262  Biso   1.000  C
  C17      1.0000 0.86933  0.87972  0.91010  Biso   1.000  C
  C18      1.0000 0.13067  0.12028  0.08990  Biso   1.000  C
  C19      1.0000 0.36933  0.62028  0.08990  Biso   1.000  C
  C20      1.0000 0.63067  0.37972  0.91010  Biso   1.000  C
  C21      1.0000 0.74057  0.75599  0.81654  Biso   1.000  C
  C22      1.0000 0.25943  0.24401  0.18346  Biso   1.000  C
  C23      1.0000 0.24057  0.74401  0.18346  Biso   1.000  C
  C24      1.0000 0.75943  0.25599  0.81654  Biso   1.000  C
  C25      1.0000 0.81940  0.68005  0.68341  Biso   1.000  C
  C26      1.0000 0.18060  0.31995  0.31659  Biso   1.000  C
  C27      1.0000 0.31940  0.81995  0.31659  Biso   1.000  C
  C28      1.0000 0.68060  0.18005  0.68341  Biso   1.000  C
