data_image0
_cell_length_a       8.7397
_cell_length_b       10.125
_cell_length_c       15.635
_cell_angle_alpha    90
_cell_angle_beta     90.98
_cell_angle_gamma    90

_symmetry_space_group_name_H-M    "P 1"
_symmetry_int_tables_number       1

loop_
  _symmetry_equiv_pos_as_xyz
  'x, y, z'

loop_
  _atom_site_label
  _atom_site_occupancy
  _atom_site_fract_x
  _atom_site_fract_y
  _atom_site_fract_z
  _atom_site_thermal_displace_type
  _atom_site_B_iso_or_equiv
  _atom_site_type_symbol
  H1       1.0000 0.23834  0.32580  0.12918  Biso   1.000  H
  H2       1.0000 0.76166  0.67420  0.87082  Biso   1.000  H
  H3       1.0000 0.76166  0.82580  0.37082  Biso   1.000  H
  H4       1.0000 0.23834  0.17420  0.62918  Biso   1.000  H
  H5       1.0000 0.30450  0.38108  0.27888  Biso   1.000  H
  H6       1.0000 0.69550  0.61892  0.72112  Biso   1.000  H
  H7       1.0000 0.69550  0.88108  0.22112  Biso   1.000  H
  H8       1.0000 0.30450  0.11892  0.77888  Biso   1.000  H
  H9       1.0000 0.16221  0.27989  0.39794  Biso   1.000  H
  H10      1.0000 0.83779  0.72011  0.60206  Biso   1.000  H
  H11      1.0000 0.83779  0.77989  0.10206  Biso   1.000  H
  H12      1.0000 0.16221  0.22011  0.89794  Biso   1.000  H
  H13      1.0000 0.95765  0.11635  0.36570  Biso   1.000  H
  H14      1.0000 0.04235  0.88365  0.63430  Biso   1.000  H
  H15      1.0000 0.04235  0.61635  0.13430  Biso   1.000  H
  H16      1.0000 0.95765  0.38365  0.86570  Biso   1.000  H
  H17      1.0000 0.89796  0.05493  0.21600  Biso   1.000  H
  H18      1.0000 0.10204  0.94507  0.78400  Biso   1.000  H
  H19      1.0000 0.10204  0.55493  0.28400  Biso   1.000  H
  H20      1.0000 0.89796  0.44507  0.71600  Biso   1.000  H
  H21      1.0000 0.39802  0.11062  0.02054  Biso   1.000  H
  H22      1.0000 0.60198  0.88938  0.97946  Biso   1.000  H
  H23      1.0000 0.60198  0.61062  0.47946  Biso   1.000  H
  H24      1.0000 0.39802  0.38938  0.52054  Biso   1.000  H
  H25      1.0000 0.60990  0.19906  0.11076  Biso   1.000  H
  H26      1.0000 0.39010  0.80094  0.88924  Biso   1.000  H
  H27      1.0000 0.39010  0.69906  0.38924  Biso   1.000  H
  H28      1.0000 0.60990  0.30094  0.61076  Biso   1.000  H
  H29      1.0000 0.62958  0.13880  0.26379  Biso   1.000  H
  H30      1.0000 0.37042  0.86120  0.73621  Biso   1.000  H
  H31      1.0000 0.37042  0.63880  0.23621  Biso   1.000  H
  H32      1.0000 0.62958  0.36120  0.76379  Biso   1.000  H
  H33      1.0000 0.43731  0.98704  0.32617  Biso   1.000  H
  H34      1.0000 0.56269  0.01296  0.67383  Biso   1.000  H
  H35      1.0000 0.56269  0.48704  0.17383  Biso   1.000  H
  H36      1.0000 0.43731  0.51296  0.82617  Biso   1.000  H
  H37      1.0000 0.22486  0.90108  0.23675  Biso   1.000  H
  H38      1.0000 0.77514  0.09892  0.76325  Biso   1.000  H
  H39      1.0000 0.77514  0.40108  0.26325  Biso   1.000  H
  H40      1.0000 0.22486  0.59892  0.73675  Biso   1.000  H
  H41      1.0000 0.39346  0.77369  0.11502  Biso   1.000  H
  H42      1.0000 0.60654  0.22631  0.88498  Biso   1.000  H
  H43      1.0000 0.60654  0.27369  0.38498  Biso   1.000  H
  H44      1.0000 0.39346  0.72631  0.61502  Biso   1.000  H
  H45      1.0000 0.42792  0.54882  0.06144  Biso   1.000  H
  H46      1.0000 0.57208  0.45118  0.93856  Biso   1.000  H
  H47      1.0000 0.57208  0.04882  0.43856  Biso   1.000  H
  H48      1.0000 0.42792  0.95118  0.56144  Biso   1.000  H
  H49      1.0000 0.25549  0.46036  0.94554  Biso   1.000  H
  H50      1.0000 0.74451  0.53964  0.05446  Biso   1.000  H
  H51      1.0000 0.74451  0.96036  0.55446  Biso   1.000  H
  H52      1.0000 0.25549  0.03964  0.44554  Biso   1.000  H
  H53      1.0000 0.05772  0.60106  0.88151  Biso   1.000  H
  H54      1.0000 0.94228  0.39894  0.11849  Biso   1.000  H
  H55      1.0000 0.94228  0.10106  0.61849  Biso   1.000  H
  H56      1.0000 0.05772  0.89894  0.38151  Biso   1.000  H
  C1       1.0000 0.17647  0.27906  0.18099  Biso   1.000  C
  C2       1.0000 0.82353  0.72094  0.81901  Biso   1.000  C
  C3       1.0000 0.82353  0.77906  0.31901  Biso   1.000  C
  C4       1.0000 0.17647  0.22094  0.68099  Biso   1.000  C
  C5       1.0000 0.21308  0.31069  0.26531  Biso   1.000  C
  C6       1.0000 0.78692  0.68931  0.73469  Biso   1.000  C
  C7       1.0000 0.78692  0.81069  0.23469  Biso   1.000  C
  C8       1.0000 0.21308  0.18931  0.76531  Biso   1.000  C
  C9       1.0000 0.13464  0.25302  0.33191  Biso   1.000  C
  C10      1.0000 0.86536  0.74698  0.66809  Biso   1.000  C
  C11      1.0000 0.86536  0.75302  0.16809  Biso   1.000  C
  C12      1.0000 0.13464  0.24698  0.83191  Biso   1.000  C
  C13      1.0000 0.02078  0.16215  0.31409  Biso   1.000  C
  C14      1.0000 0.97922  0.83785  0.68591  Biso   1.000  C
  C15      1.0000 0.97922  0.66215  0.18591  Biso   1.000  C
  C16      1.0000 0.02078  0.33785  0.81409  Biso   1.000  C
  C17      1.0000 0.98594  0.12832  0.22990  Biso   1.000  C
  C18      1.0000 0.01406  0.87168  0.77010  Biso   1.000  C
  C19      1.0000 0.01406  0.62832  0.27010  Biso   1.000  C
  C20      1.0000 0.98594  0.37168  0.72990  Biso   1.000  C
  C21      1.0000 0.06385  0.18589  0.16235  Biso   1.000  C
  C22      1.0000 0.93615  0.81411  0.83765  Biso   1.000  C
  C23      1.0000 0.93615  0.68589  0.33765  Biso   1.000  C
  C24      1.0000 0.06385  0.31411  0.66235  Biso   1.000  C
  C25      1.0000 0.01065  0.14837  0.07359  Biso   1.000  C
  C26      1.0000 0.98935  0.85163  0.92641  Biso   1.000  C
  C27      1.0000 0.98935  0.64837  0.42641  Biso   1.000  C
  C28      1.0000 0.01065  0.35163  0.57359  Biso   1.000  C
  C29      1.0000 0.04701  0.02417  0.03590  Biso   1.000  C
  C30      1.0000 0.95299  0.97583  0.96410  Biso   1.000  C
  C31      1.0000 0.95299  0.52417  0.46410  Biso   1.000  C
  C32      1.0000 0.04701  0.47583  0.53590  Biso   1.000  C
  C33      1.0000 0.17338  0.94658  0.06548  Biso   1.000  C
  C34      1.0000 0.82662  0.05342  0.93452  Biso   1.000  C
  C35      1.0000 0.82662  0.44658  0.43452  Biso   1.000  C
  C36      1.0000 0.17338  0.55342  0.56548  Biso   1.000  C
  C37      1.0000 0.29635  0.00181  0.12276  Biso   1.000  C
  C38      1.0000 0.70365  0.99819  0.87724  Biso   1.000  C
  C39      1.0000 0.70365  0.50181  0.37724  Biso   1.000  C
  C40      1.0000 0.29635  0.49819  0.62276  Biso   1.000  C
  C41      1.0000 0.40605  0.08424  0.08810  Biso   1.000  C
  C42      1.0000 0.59395  0.91576  0.91190  Biso   1.000  C
  C43      1.0000 0.59395  0.58424  0.41190  Biso   1.000  C
  C44      1.0000 0.40605  0.41576  0.58810  Biso   1.000  C
  C45      1.0000 0.52543  0.13364  0.13854  Biso   1.000  C
  C46      1.0000 0.47457  0.86636  0.86146  Biso   1.000  C
  C47      1.0000 0.47457  0.63364  0.36146  Biso   1.000  C
  C48      1.0000 0.52543  0.36636  0.63854  Biso   1.000  C
  C49      1.0000 0.53619  0.09981  0.22427  Biso   1.000  C
  C50      1.0000 0.46381  0.90019  0.77573  Biso   1.000  C
  C51      1.0000 0.46381  0.59981  0.27573  Biso   1.000  C
  C52      1.0000 0.53619  0.40019  0.72427  Biso   1.000  C
  C53      1.0000 0.42887  0.01592  0.25916  Biso   1.000  C
  C54      1.0000 0.57113  0.98408  0.74084  Biso   1.000  C
  C55      1.0000 0.57113  0.51592  0.24084  Biso   1.000  C
  C56      1.0000 0.42887  0.48408  0.75916  Biso   1.000  C
  C57      1.0000 0.30981  0.96647  0.20905  Biso   1.000  C
  C58      1.0000 0.69019  0.03353  0.79095  Biso   1.000  C
  C59      1.0000 0.69019  0.46647  0.29095  Biso   1.000  C
  C60      1.0000 0.30981  0.53353  0.70905  Biso   1.000  C
  C61      1.0000 0.19559  0.81858  0.03378  Biso   1.000  C
  C62      1.0000 0.80441  0.18142  0.96622  Biso   1.000  C
  C63      1.0000 0.80441  0.31858  0.46622  Biso   1.000  C
  C64      1.0000 0.19559  0.68142  0.53378  Biso   1.000  C
  C65      1.0000 0.31725  0.73539  0.06523  Biso   1.000  C
  C66      1.0000 0.68275  0.26461  0.93477  Biso   1.000  C
  C67      1.0000 0.68275  0.23539  0.43477  Biso   1.000  C
  C68      1.0000 0.31725  0.76461  0.56523  Biso   1.000  C
  C69      1.0000 0.33697  0.61086  0.03502  Biso   1.000  C
  C70      1.0000 0.66303  0.38914  0.96498  Biso   1.000  C
  C71      1.0000 0.66303  0.11086  0.46498  Biso   1.000  C
  C72      1.0000 0.33697  0.88914  0.53502  Biso   1.000  C
  C73      1.0000 0.23994  0.56078  0.96892  Biso   1.000  C
  C74      1.0000 0.76006  0.43922  0.03108  Biso   1.000  C
  C75      1.0000 0.76006  0.06078  0.53108  Biso   1.000  C
  C76      1.0000 0.23994  0.93922  0.46892  Biso   1.000  C
  C77      1.0000 0.12899  0.63859  0.93372  Biso   1.000  C
  C78      1.0000 0.87101  0.36141  0.06628  Biso   1.000  C
  C79      1.0000 0.87101  0.13859  0.56628  Biso   1.000  C
  C80      1.0000 0.12899  0.86141  0.43372  Biso   1.000  C
  C81      1.0000 0.10034  0.76952  0.96491  Biso   1.000  C
  C82      1.0000 0.89966  0.23048  0.03509  Biso   1.000  C
  C83      1.0000 0.89966  0.26952  0.53509  Biso   1.000  C
  C84      1.0000 0.10034  0.73048  0.46491  Biso   1.000  C
