data_image0
_cell_length_a       6.92
_cell_length_b       7.44
_cell_length_c       9.55
_cell_angle_alpha    90
_cell_angle_beta     90
_cell_angle_gamma    90

_symmetry_space_group_name_H-M    "P 1"
_symmetry_int_tables_number       1

loop_
  _symmetry_equiv_pos_as_xyz
  'x, y, z'

loop_
  _atom_site_label
  _atom_site_occupancy
  _atom_site_fract_x
  _atom_site_fract_y
  _atom_site_fract_z
  _atom_site_thermal_displace_type
  _atom_site_B_iso_or_equiv
  _atom_site_type_symbol
  H1       1.0000 0.99034  0.89977  0.24770  Biso   1.000  H
  H2       1.0000 0.00966  0.10023  0.75230  Biso   1.000  H
  H3       1.0000 0.49034  0.60023  0.75230  Biso   1.000  H
  H4       1.0000 0.50966  0.39977  0.24770  Biso   1.000  H
  H5       1.0000 0.50966  0.10023  0.74770  Biso   1.000  H
  H6       1.0000 0.49034  0.89977  0.25230  Biso   1.000  H
  H7       1.0000 0.00966  0.39977  0.25230  Biso   1.000  H
  H8       1.0000 0.99034  0.60023  0.74770  Biso   1.000  H
  H9       1.0000 0.22435  0.76085  0.08072  Biso   1.000  H
  H10      1.0000 0.77565  0.23915  0.91928  Biso   1.000  H
  H11      1.0000 0.72435  0.73915  0.91928  Biso   1.000  H
  H12      1.0000 0.27565  0.26085  0.08072  Biso   1.000  H
  H13      1.0000 0.27565  0.23915  0.58072  Biso   1.000  H
  H14      1.0000 0.72435  0.76085  0.41928  Biso   1.000  H
  H15      1.0000 0.77565  0.26085  0.41928  Biso   1.000  H
  H16      1.0000 0.22435  0.73915  0.58072  Biso   1.000  H
  H17      1.0000 0.76725  0.13733  0.16485  Biso   1.000  H
  H18      1.0000 0.23275  0.86267  0.83515  Biso   1.000  H
  H19      1.0000 0.26725  0.36267  0.83515  Biso   1.000  H
  H20      1.0000 0.73275  0.63733  0.16485  Biso   1.000  H
  H21      1.0000 0.73275  0.86267  0.66485  Biso   1.000  H
  H22      1.0000 0.26725  0.13733  0.33515  Biso   1.000  H
  H23      1.0000 0.23275  0.63733  0.33515  Biso   1.000  H
  H24      1.0000 0.76725  0.36267  0.66485  Biso   1.000  H
  C1       1.0000 0.99460  0.94310  0.13870  Biso   1.000  C
  C2       1.0000 0.00540  0.05690  0.86130  Biso   1.000  C
  C3       1.0000 0.49460  0.55690  0.86130  Biso   1.000  C
  C4       1.0000 0.50540  0.44310  0.13870  Biso   1.000  C
  C5       1.0000 0.50540  0.05690  0.63870  Biso   1.000  C
  C6       1.0000 0.49460  0.94310  0.36130  Biso   1.000  C
  C7       1.0000 0.00540  0.44310  0.36130  Biso   1.000  C
  C8       1.0000 0.99460  0.55690  0.63870  Biso   1.000  C
  C9       1.0000 0.12640  0.86650  0.04600  Biso   1.000  C
  C10      1.0000 0.87360  0.13350  0.95400  Biso   1.000  C
  C11      1.0000 0.62640  0.63350  0.95400  Biso   1.000  C
  C12      1.0000 0.37360  0.36650  0.04600  Biso   1.000  C
  C13      1.0000 0.37360  0.13350  0.54600  Biso   1.000  C
  C14      1.0000 0.62640  0.86650  0.45400  Biso   1.000  C
  C15      1.0000 0.87360  0.36650  0.45400  Biso   1.000  C
  C16      1.0000 0.12640  0.63350  0.54600  Biso   1.000  C
  C17      1.0000 0.87050  0.07740  0.09250  Biso   1.000  C
  C18      1.0000 0.12950  0.92260  0.90750  Biso   1.000  C
  C19      1.0000 0.37050  0.42260  0.90750  Biso   1.000  C
  C20      1.0000 0.62950  0.57740  0.09250  Biso   1.000  C
  C21      1.0000 0.62950  0.92260  0.59250  Biso   1.000  C
  C22      1.0000 0.37050  0.07740  0.40750  Biso   1.000  C
  C23      1.0000 0.12950  0.57740  0.40750  Biso   1.000  C
  C24      1.0000 0.87050  0.42260  0.59250  Biso   1.000  C
