data_image0
_cell_length_a       10.1713
_cell_length_b       12.1167
_cell_length_c       13.0185
_cell_angle_alpha    63.194
_cell_angle_beta     68.387
_cell_angle_gamma    65.645

_symmetry_space_group_name_H-M    "P 1"
_symmetry_int_tables_number       1

loop_
  _symmetry_equiv_pos_as_xyz
  'x, y, z'

loop_
  _atom_site_label
  _atom_site_occupancy
  _atom_site_fract_x
  _atom_site_fract_y
  _atom_site_fract_z
  _atom_site_thermal_displace_type
  _atom_site_B_iso_or_equiv
  _atom_site_type_symbol
  H1       1.0000 0.86201  0.17121  0.10704  Biso   1.000  H
  H2       1.0000 0.13799  0.82879  0.89296  Biso   1.000  H
  H3       1.0000 0.63465  0.15101  0.28541  Biso   1.000  H
  H4       1.0000 0.36535  0.84899  0.71459  Biso   1.000  H
  H5       1.0000 0.64971  0.99570  0.48829  Biso   1.000  H
  H6       1.0000 0.35029  0.00430  0.51171  Biso   1.000  H
  H7       1.0000 0.79278  0.00779  0.59835  Biso   1.000  H
  H8       1.0000 0.20722  0.99221  0.40165  Biso   1.000  H
  H9       1.0000 0.91924  0.17904  0.50469  Biso   1.000  H
  H10      1.0000 0.08076  0.82096  0.49531  Biso   1.000  H
  H11      1.0000 0.89909  0.33640  0.30581  Biso   1.000  H
  H12      1.0000 0.10091  0.66360  0.69419  Biso   1.000  H
  H13      1.0000 0.48348  0.45643  0.29775  Biso   1.000  H
  H14      1.0000 0.51652  0.54357  0.70225  Biso   1.000  H
  H15      1.0000 0.37384  0.57360  0.43604  Biso   1.000  H
  H16      1.0000 0.62616  0.42640  0.56396  Biso   1.000  H
  H17      1.0000 0.48473  0.73027  0.41951  Biso   1.000  H
  H18      1.0000 0.51527  0.26973  0.58049  Biso   1.000  H
  H19      1.0000 0.70866  0.76749  0.26159  Biso   1.000  H
  H20      1.0000 0.29134  0.23251  0.73841  Biso   1.000  H
  H21      1.0000 0.81586  0.65319  0.12061  Biso   1.000  H
  H22      1.0000 0.18414  0.34681  0.87939  Biso   1.000  H
  H23      1.0000 0.45455  0.71304  0.00731  Biso   1.000  H
  H24      1.0000 0.54545  0.28696  0.99269  Biso   1.000  H
  H25      1.0000 0.38483  0.95256  0.93505  Biso   1.000  H
  H26      1.0000 0.61517  0.04744  0.06495  Biso   1.000  H
  H27      1.0000 0.57868  0.06365  0.83209  Biso   1.000  H
  H28      1.0000 0.42132  0.93635  0.16791  Biso   1.000  H
  H29      1.0000 0.84321  0.93470  0.80271  Biso   1.000  H
  H30      1.0000 0.15679  0.06530  0.19729  Biso   1.000  H
  H31      1.0000 0.91270  0.69654  0.87441  Biso   1.000  H
  H32      1.0000 0.08730  0.30346  0.12559  Biso   1.000  H
  H33      1.0000 0.57315  0.65707  0.79255  Biso   1.000  H
  H34      1.0000 0.42685  0.34293  0.20745  Biso   1.000  H
  H35      1.0000 0.59961  0.76898  0.57736  Biso   1.000  H
  H36      1.0000 0.40039  0.23102  0.42264  Biso   1.000  H
  H37      1.0000 0.84614  0.73022  0.44172  Biso   1.000  H
  H38      1.0000 0.15386  0.26978  0.55828  Biso   1.000  H
  H39      1.0000 0.06575  0.57639  0.52329  Biso   1.000  H
  H40      1.0000 0.93425  0.42361  0.47671  Biso   1.000  H
  H41      1.0000 0.03945  0.46162  0.73727  Biso   1.000  H
  H42      1.0000 0.96055  0.53838  0.26273  Biso   1.000  H
  H43      1.0000 0.70568  0.35192  0.79875  Biso   1.000  H
  H44      1.0000 0.29432  0.64808  0.20125  Biso   1.000  H
  H45      1.0000 0.79622  0.21034  0.68440  Biso   1.000  H
  H46      1.0000 0.20378  0.78966  0.31560  Biso   1.000  H
  H47      1.0000 0.04254  0.04286  0.69059  Biso   1.000  H
  H48      1.0000 0.95746  0.95714  0.30941  Biso   1.000  H
  H49      1.0000 0.19177  0.01607  0.81858  Biso   1.000  H
  H50      1.0000 0.80823  0.98393  0.18142  Biso   1.000  H
  H51      1.0000 0.09599  0.15219  0.94018  Biso   1.000  H
  H52      1.0000 0.90401  0.84781  0.05982  Biso   1.000  H
  C1       1.0000 0.76737  0.33929  0.15507  Biso   1.000  C
  C2       1.0000 0.23263  0.66071  0.84493  Biso   1.000  C
  C3       1.0000 0.72094  0.47590  0.11369  Biso   1.000  C
  C4       1.0000 0.27906  0.52410  0.88631  Biso   1.000  C
  C5       1.0000 0.73364  0.54384  0.99092  Biso   1.000  C
  C6       1.0000 0.26636  0.45616  0.00908  Biso   1.000  C
  C7       1.0000 0.79016  0.47888  0.91061  Biso   1.000  C
  C8       1.0000 0.20984  0.52112  0.08939  Biso   1.000  C
  C9       1.0000 0.83630  0.34197  0.95367  Biso   1.000  C
  C10      1.0000 0.16370  0.65803  0.04633  Biso   1.000  C
  C11      1.0000 0.82425  0.27660  0.07452  Biso   1.000  C
  C12      1.0000 0.17575  0.72340  0.92548  Biso   1.000  C
  C13      1.0000 0.76480  0.25511  0.28180  Biso   1.000  C
  C14      1.0000 0.23520  0.74489  0.71820  Biso   1.000  C
  C15      1.0000 0.69540  0.15837  0.33469  Biso   1.000  C
  C16      1.0000 0.30460  0.84163  0.66531  Biso   1.000  C
  C17      1.0000 0.70391  0.07130  0.44828  Biso   1.000  C
  C18      1.0000 0.29609  0.92870  0.55172  Biso   1.000  C
  C19      1.0000 0.78369  0.07816  0.51002  Biso   1.000  C
  C20      1.0000 0.21631  0.92184  0.48998  Biso   1.000  C
  C21      1.0000 0.85306  0.17402  0.45837  Biso   1.000  C
  C22      1.0000 0.14694  0.82598  0.54163  Biso   1.000  C
  C23      1.0000 0.84256  0.26263  0.34572  Biso   1.000  C
  C24      1.0000 0.15744  0.73737  0.65428  Biso   1.000  C
  C25      1.0000 0.65709  0.54670  0.19809  Biso   1.000  C
  C26      1.0000 0.34291  0.45330  0.80191  Biso   1.000  C
  C27      1.0000 0.53336  0.52535  0.28864  Biso   1.000  C
  C28      1.0000 0.46664  0.47465  0.71136  Biso   1.000  C
  C29      1.0000 0.47116  0.59167  0.36648  Biso   1.000  C
  C30      1.0000 0.52884  0.40833  0.63352  Biso   1.000  C
  C31      1.0000 0.53326  0.67923  0.35730  Biso   1.000  C
  C32      1.0000 0.46674  0.32077  0.64270  Biso   1.000  C
  C33      1.0000 0.65755  0.70014  0.26904  Biso   1.000  C
  C34      1.0000 0.34245  0.29986  0.73096  Biso   1.000  C
  C35      1.0000 0.71833  0.63542  0.18997  Biso   1.000  C
  C36      1.0000 0.28167  0.36458  0.81003  Biso   1.000  C
  C37      1.0000 0.68836  0.68921  0.94525  Biso   1.000  C
  C38      1.0000 0.31164  0.31079  0.05475  Biso   1.000  C
  C39      1.0000 0.54024  0.76171  0.96176  Biso   1.000  C
  C40      1.0000 0.45976  0.23829  0.03824  Biso   1.000  C
  C41      1.0000 0.50132  0.89641  0.92005  Biso   1.000  C
  C42      1.0000 0.49868  0.10359  0.07995  Biso   1.000  C
  C43      1.0000 0.60980  0.95833  0.86281  Biso   1.000  C
  C44      1.0000 0.39020  0.04167  0.13719  Biso   1.000  C
  C45      1.0000 0.75680  0.88682  0.84618  Biso   1.000  C
  C46      1.0000 0.24320  0.11318  0.15382  Biso   1.000  C
  C47      1.0000 0.79625  0.75302  0.88657  Biso   1.000  C
  C48      1.0000 0.20375  0.24698  0.11343  Biso   1.000  C
  C49      1.0000 0.80478  0.55161  0.78068  Biso   1.000  C
  C50      1.0000 0.19522  0.44839  0.21932  Biso   1.000  C
  C51      1.0000 0.68207  0.63981  0.73360  Biso   1.000  C
  C52      1.0000 0.31793  0.36019  0.26640  Biso   1.000  C
  C53      1.0000 0.69732  0.70296  0.61264  Biso   1.000  C
  C54      1.0000 0.30268  0.29704  0.38736  Biso   1.000  C
  C55      1.0000 0.83436  0.68087  0.53682  Biso   1.000  C
  C56      1.0000 0.16564  0.31913  0.46318  Biso   1.000  C
  C57      1.0000 0.95706  0.59472  0.58239  Biso   1.000  C
  C58      1.0000 0.04294  0.40528  0.41761  Biso   1.000  C
  C59      1.0000 0.94210  0.53011  0.70280  Biso   1.000  C
  C60      1.0000 0.05790  0.46989  0.29720  Biso   1.000  C
  C61      1.0000 0.89468  0.26291  0.87738  Biso   1.000  C
  C62      1.0000 0.10532  0.73709  0.12262  Biso   1.000  C
  C63      1.0000 0.81260  0.27812  0.80376  Biso   1.000  C
  C64      1.0000 0.18740  0.72188  0.19624  Biso   1.000  C
  C65      1.0000 0.86424  0.19843  0.73877  Biso   1.000  C
  C66      1.0000 0.13576  0.80157  0.26123  Biso   1.000  C
  C67      1.0000 0.00065  0.10411  0.74335  Biso   1.000  C
  C68      1.0000 0.99935  0.89589  0.25665  Biso   1.000  C
  C69      1.0000 0.08383  0.08901  0.81500  Biso   1.000  C
  C70      1.0000 0.91617  0.91099  0.18500  Biso   1.000  C
  C71      1.0000 0.03074  0.16624  0.88253  Biso   1.000  C
  C72      1.0000 0.96926  0.83376  0.11747  Biso   1.000  C
