data_image0
_cell_length_a       7.17
_cell_length_b       13.866
_cell_length_c       14.211
_cell_angle_alpha    90
_cell_angle_beta     90
_cell_angle_gamma    104.984

_symmetry_space_group_name_H-M    "P 1"
_symmetry_int_tables_number       1

loop_
  _symmetry_equiv_pos_as_xyz
  'x, y, z'

loop_
  _atom_site_label
  _atom_site_occupancy
  _atom_site_fract_x
  _atom_site_fract_y
  _atom_site_fract_z
  _atom_site_thermal_displace_type
  _atom_site_B_iso_or_equiv
  _atom_site_type_symbol
  C1       1.0000 0.97263  0.94526  0.00000  Biso   1.000  C
  C2       1.0000 0.02737  0.05474  0.00000  Biso   1.000  C
  C3       1.0000 0.52737  0.05474  0.50000  Biso   1.000  C
  C4       1.0000 0.47263  0.94526  0.50000  Biso   1.000  C
  C5       1.0000 0.09150  0.89372  0.95086  Biso   1.000  C
  C6       1.0000 0.90850  0.10628  0.04914  Biso   1.000  C
  C7       1.0000 0.40850  0.10628  0.45086  Biso   1.000  C
  C8       1.0000 0.59150  0.89372  0.54914  Biso   1.000  C
  C9       1.0000 0.69778  0.10628  0.54914  Biso   1.000  C
  C10      1.0000 0.30222  0.89372  0.45086  Biso   1.000  C
  C11      1.0000 0.80222  0.89372  0.04914  Biso   1.000  C
  C12      1.0000 0.19778  0.10628  0.95086  Biso   1.000  C
  C13      1.0000 0.26900  0.94644  0.91245  Biso   1.000  C
  C14      1.0000 0.73100  0.05356  0.08755  Biso   1.000  C
  C15      1.0000 0.23100  0.05356  0.41245  Biso   1.000  C
  C16      1.0000 0.76900  0.94644  0.58755  Biso   1.000  C
  C17      1.0000 0.82256  0.05356  0.58755  Biso   1.000  C
  C18      1.0000 0.17744  0.94644  0.41245  Biso   1.000  C
  C19      1.0000 0.67744  0.94644  0.08755  Biso   1.000  C
  C20      1.0000 0.32256  0.05356  0.91245  Biso   1.000  C
  C21      1.0000 0.39563  0.89618  0.86588  Biso   1.000  C
  C22      1.0000 0.60437  0.10382  0.13412  Biso   1.000  C
  C23      1.0000 0.10437  0.10382  0.36588  Biso   1.000  C
  C24      1.0000 0.89563  0.89618  0.63412  Biso   1.000  C
  C25      1.0000 0.99945  0.10382  0.63412  Biso   1.000  C
  C26      1.0000 0.00055  0.89618  0.36588  Biso   1.000  C
  C27      1.0000 0.50055  0.89618  0.13412  Biso   1.000  C
  C28      1.0000 0.49945  0.10382  0.86588  Biso   1.000  C
  C29      1.0000 0.56288  0.94708  0.82466  Biso   1.000  C
  C30      1.0000 0.43712  0.05292  0.17534  Biso   1.000  C
  C31      1.0000 0.93712  0.05292  0.32466  Biso   1.000  C
  C32      1.0000 0.06288  0.94708  0.67534  Biso   1.000  C
  C33      1.0000 0.11580  0.05292  0.67534  Biso   1.000  C
  C34      1.0000 0.88420  0.94708  0.32466  Biso   1.000  C
  C35      1.0000 0.38420  0.94708  0.17534  Biso   1.000  C
  C36      1.0000 0.61580  0.05292  0.82466  Biso   1.000  C
  C37      1.0000 0.02688  0.78480  0.92726  Biso   1.000  C
  C38      1.0000 0.97312  0.21520  0.07274  Biso   1.000  C
  C39      1.0000 0.47312  0.21520  0.42726  Biso   1.000  C
  C40      1.0000 0.52688  0.78480  0.57274  Biso   1.000  C
  C41      1.0000 0.74208  0.21520  0.57274  Biso   1.000  C
  C42      1.0000 0.25792  0.78480  0.42726  Biso   1.000  C
  C43      1.0000 0.75792  0.78480  0.07274  Biso   1.000  C
  C44      1.0000 0.24208  0.21520  0.92726  Biso   1.000  C
  C45      1.0000 0.10525  0.71416  0.97119  Biso   1.000  C
  C46      1.0000 0.89475  0.28584  0.02881  Biso   1.000  C
  C47      1.0000 0.39475  0.28584  0.47119  Biso   1.000  C
  C48      1.0000 0.60525  0.71416  0.52881  Biso   1.000  C
  C49      1.0000 0.89109  0.28584  0.52881  Biso   1.000  C
  C50      1.0000 0.10891  0.71416  0.47119  Biso   1.000  C
  C51      1.0000 0.60891  0.71416  0.02881  Biso   1.000  C
  C52      1.0000 0.39109  0.28584  0.97119  Biso   1.000  C
  C53      1.0000 0.05891  0.61602  0.94021  Biso   1.000  C
  C54      1.0000 0.94109  0.38398  0.05979  Biso   1.000  C
  C55      1.0000 0.44109  0.38398  0.44021  Biso   1.000  C
  C56      1.0000 0.55891  0.61602  0.55979  Biso   1.000  C
  C57      1.0000 0.94289  0.38398  0.55979  Biso   1.000  C
  C58      1.0000 0.05711  0.61602  0.44021  Biso   1.000  C
  C59      1.0000 0.55711  0.61602  0.05979  Biso   1.000  C
  C60      1.0000 0.44289  0.38398  0.94021  Biso   1.000  C
  C61      1.0000 0.93205  0.58630  0.86552  Biso   1.000  C
  C62      1.0000 0.06795  0.41370  0.13448  Biso   1.000  C
  C63      1.0000 0.56795  0.41370  0.36552  Biso   1.000  C
  C64      1.0000 0.43205  0.58630  0.63448  Biso   1.000  C
  C65      1.0000 0.84575  0.41370  0.63448  Biso   1.000  C
  C66      1.0000 0.15425  0.58630  0.36552  Biso   1.000  C
  C67      1.0000 0.65425  0.58630  0.13448  Biso   1.000  C
  C68      1.0000 0.34575  0.41370  0.86552  Biso   1.000  C
  C69      1.0000 0.85291  0.65562  0.82143  Biso   1.000  C
  C70      1.0000 0.14709  0.34438  0.17857  Biso   1.000  C
  C71      1.0000 0.64709  0.34438  0.32143  Biso   1.000  C
  C72      1.0000 0.35291  0.65562  0.67857  Biso   1.000  C
  C73      1.0000 0.69729  0.34438  0.67857  Biso   1.000  C
  C74      1.0000 0.30271  0.65562  0.32143  Biso   1.000  C
  C75      1.0000 0.80271  0.65562  0.17857  Biso   1.000  C
  C76      1.0000 0.19729  0.34438  0.82143  Biso   1.000  C
  C77      1.0000 0.90060  0.75396  0.85184  Biso   1.000  C
  C78      1.0000 0.09940  0.24604  0.14816  Biso   1.000  C
  C79      1.0000 0.59940  0.24604  0.35184  Biso   1.000  C
  C80      1.0000 0.40060  0.75396  0.64816  Biso   1.000  C
  C81      1.0000 0.64664  0.24604  0.64816  Biso   1.000  C
  C82      1.0000 0.35336  0.75396  0.35184  Biso   1.000  C
  C83      1.0000 0.85336  0.75396  0.14816  Biso   1.000  C
  C84      1.0000 0.14664  0.24604  0.85184  Biso   1.000  C
  H1       1.0000 0.35479  0.81505  0.86415  Biso   1.000  H
  H2       1.0000 0.64521  0.18495  0.13585  Biso   1.000  H
  H3       1.0000 0.14521  0.18495  0.36415  Biso   1.000  H
  H4       1.0000 0.85479  0.81505  0.63585  Biso   1.000  H
  H5       1.0000 0.03974  0.18495  0.63585  Biso   1.000  H
  H6       1.0000 0.96026  0.81505  0.36415  Biso   1.000  H
  H7       1.0000 0.46026  0.81505  0.13585  Biso   1.000  H
  H8       1.0000 0.53974  0.18495  0.86415  Biso   1.000  H
  H9       1.0000 0.65624  0.90726  0.79026  Biso   1.000  H
  H10      1.0000 0.34376  0.09274  0.20974  Biso   1.000  H
  H11      1.0000 0.84376  0.09274  0.29026  Biso   1.000  H
  H12      1.0000 0.15624  0.90726  0.70974  Biso   1.000  H
  H13      1.0000 0.24898  0.09274  0.70974  Biso   1.000  H
  H14      1.0000 0.75102  0.90726  0.29026  Biso   1.000  H
  H15      1.0000 0.25102  0.90726  0.20974  Biso   1.000  H
  H16      1.0000 0.74898  0.09274  0.79026  Biso   1.000  H
  H17      1.0000 0.20337  0.73689  0.03030  Biso   1.000  H
  H18      1.0000 0.79663  0.26311  0.96970  Biso   1.000  H
  H19      1.0000 0.29663  0.26311  0.53030  Biso   1.000  H
  H20      1.0000 0.70337  0.73689  0.46970  Biso   1.000  H
  H21      1.0000 0.96648  0.26311  0.46970  Biso   1.000  H
  H22      1.0000 0.03352  0.73689  0.53030  Biso   1.000  H
  H23      1.0000 0.53352  0.73689  0.96970  Biso   1.000  H
  H24      1.0000 0.46648  0.26311  0.03030  Biso   1.000  H
  H25      1.0000 0.12322  0.56211  0.97435  Biso   1.000  H
  H26      1.0000 0.87678  0.43789  0.02565  Biso   1.000  H
  H27      1.0000 0.37678  0.43789  0.47435  Biso   1.000  H
  H28      1.0000 0.62322  0.56211  0.52565  Biso   1.000  H
  H29      1.0000 0.06111  0.43789  0.52565  Biso   1.000  H
  H30      1.0000 0.93889  0.56211  0.47435  Biso   1.000  H
  H31      1.0000 0.43889  0.56211  0.02565  Biso   1.000  H
  H32      1.0000 0.56111  0.43789  0.97435  Biso   1.000  H
  H33      1.0000 0.89620  0.50882  0.84190  Biso   1.000  H
  H34      1.0000 0.10380  0.49118  0.15810  Biso   1.000  H
  H35      1.0000 0.60380  0.49118  0.34190  Biso   1.000  H
  H36      1.0000 0.39620  0.50882  0.65810  Biso   1.000  H
  H37      1.0000 0.88738  0.49118  0.65810  Biso   1.000  H
  H38      1.0000 0.11262  0.50882  0.34190  Biso   1.000  H
  H39      1.0000 0.61262  0.50882  0.15810  Biso   1.000  H
  H40      1.0000 0.38738  0.49118  0.84190  Biso   1.000  H
  H41      1.0000 0.75289  0.63354  0.76274  Biso   1.000  H
  H42      1.0000 0.24711  0.36646  0.23726  Biso   1.000  H
  H43      1.0000 0.74711  0.36646  0.26274  Biso   1.000  H
  H44      1.0000 0.25289  0.63354  0.73726  Biso   1.000  H
  H45      1.0000 0.61935  0.36646  0.73726  Biso   1.000  H
  H46      1.0000 0.38065  0.63354  0.26274  Biso   1.000  H
  H47      1.0000 0.88065  0.63354  0.23726  Biso   1.000  H
  H48      1.0000 0.11935  0.36646  0.76274  Biso   1.000  H
  H49      1.0000 0.83933  0.80850  0.81688  Biso   1.000  H
  H50      1.0000 0.16067  0.19150  0.18312  Biso   1.000  H
  H51      1.0000 0.66067  0.19150  0.31688  Biso   1.000  H
  H52      1.0000 0.33933  0.80850  0.68312  Biso   1.000  H
  H53      1.0000 0.53082  0.19150  0.68312  Biso   1.000  H
  H54      1.0000 0.46918  0.80850  0.31688  Biso   1.000  H
  H55      1.0000 0.96918  0.80850  0.18312  Biso   1.000  H
  H56      1.0000 0.03082  0.19150  0.81688  Biso   1.000  H
