data_image0
_cell_length_a       9.89
_cell_length_b       11.72
_cell_length_c       11.88
_cell_angle_alpha    90
_cell_angle_beta     90
_cell_angle_gamma    98.5

_symmetry_space_group_name_H-M    "P 1"
_symmetry_int_tables_number       1

loop_
  _symmetry_equiv_pos_as_xyz
  'x, y, z'

loop_
  _atom_site_label
  _atom_site_occupancy
  _atom_site_fract_x
  _atom_site_fract_y
  _atom_site_fract_z
  _atom_site_thermal_displace_type
  _atom_site_B_iso_or_equiv
  _atom_site_type_symbol
  C1       1.0000 0.33360  0.15630  0.82450  Biso   1.000  C
  C2       1.0000 0.66640  0.84370  0.17550  Biso   1.000  C
  C3       1.0000 0.66640  0.34370  0.32450  Biso   1.000  C
  C4       1.0000 0.33360  0.65630  0.67550  Biso   1.000  C
  C5       1.0000 0.39230  0.22880  0.91150  Biso   1.000  C
  C6       1.0000 0.60770  0.77120  0.08850  Biso   1.000  C
  C7       1.0000 0.60770  0.27120  0.41150  Biso   1.000  C
  C8       1.0000 0.39230  0.72880  0.58850  Biso   1.000  C
  C9       1.0000 0.31390  0.26200  0.99860  Biso   1.000  C
  C10      1.0000 0.68610  0.73800  0.00140  Biso   1.000  C
  C11      1.0000 0.68610  0.23800  0.49860  Biso   1.000  C
  C12      1.0000 0.31390  0.76200  0.50140  Biso   1.000  C
  C13      1.0000 0.17030  0.22330  0.00290  Biso   1.000  C
  C14      1.0000 0.82970  0.77670  0.99710  Biso   1.000  C
  C15      1.0000 0.82970  0.27670  0.50290  Biso   1.000  C
  C16      1.0000 0.17030  0.72330  0.49710  Biso   1.000  C
  C17      1.0000 0.08930  0.25590  0.09020  Biso   1.000  C
  C18      1.0000 0.91070  0.74410  0.90980  Biso   1.000  C
  C19      1.0000 0.91070  0.24410  0.59020  Biso   1.000  C
  C20      1.0000 0.08930  0.75590  0.40980  Biso   1.000  C
  C21      1.0000 0.94750  0.21670  0.09280  Biso   1.000  C
  C22      1.0000 0.05250  0.78330  0.90720  Biso   1.000  C
  C23      1.0000 0.05250  0.28330  0.59280  Biso   1.000  C
  C24      1.0000 0.94750  0.71670  0.40720  Biso   1.000  C
  C25      1.0000 0.88520  0.14460  0.00810  Biso   1.000  C
  C26      1.0000 0.11480  0.85540  0.99190  Biso   1.000  C
  C27      1.0000 0.11480  0.35540  0.50810  Biso   1.000  C
  C28      1.0000 0.88520  0.64460  0.49190  Biso   1.000  C
  C29      1.0000 0.74190  0.10400  0.00900  Biso   1.000  C
  C30      1.0000 0.25810  0.89600  0.99100  Biso   1.000  C
  C31      1.0000 0.25810  0.39600  0.50900  Biso   1.000  C
  C32      1.0000 0.74190  0.60400  0.49100  Biso   1.000  C
  C33      1.0000 0.68320  0.03240  0.92450  Biso   1.000  C
  C34      1.0000 0.31680  0.96760  0.07550  Biso   1.000  C
  C35      1.0000 0.31680  0.46760  0.42450  Biso   1.000  C
  C36      1.0000 0.68320  0.53240  0.57550  Biso   1.000  C
  C37      1.0000 0.75980  0.99760  0.83490  Biso   1.000  C
  C38      1.0000 0.24020  0.00240  0.16510  Biso   1.000  C
  C39      1.0000 0.24020  0.50240  0.33490  Biso   1.000  C
  C40      1.0000 0.75980  0.49760  0.66510  Biso   1.000  C
  C41      1.0000 0.70040  0.92580  0.74920  Biso   1.000  C
  C42      1.0000 0.29960  0.07420  0.25080  Biso   1.000  C
  C43      1.0000 0.29960  0.57420  0.24920  Biso   1.000  C
  C44      1.0000 0.70040  0.42580  0.75080  Biso   1.000  C
  C45      1.0000 0.77900  0.89150  0.66040  Biso   1.000  C
  C46      1.0000 0.22100  0.10850  0.33960  Biso   1.000  C
  C47      1.0000 0.22100  0.60850  0.16040  Biso   1.000  C
  C48      1.0000 0.77900  0.39150  0.83960  Biso   1.000  C
  C49      1.0000 0.92050  0.93070  0.65760  Biso   1.000  C
  C50      1.0000 0.07950  0.06930  0.34240  Biso   1.000  C
  C51      1.0000 0.07950  0.56930  0.15760  Biso   1.000  C
  C52      1.0000 0.92050  0.43070  0.84240  Biso   1.000  C
  C53      1.0000 0.21090  0.01090  0.65240  Biso   1.000  C
  C54      1.0000 0.78910  0.98910  0.34760  Biso   1.000  C
  C55      1.0000 0.78910  0.48910  0.15240  Biso   1.000  C
  C56      1.0000 0.21090  0.51090  0.84760  Biso   1.000  C
  C57      1.0000 0.35240  0.05000  0.64980  Biso   1.000  C
  C58      1.0000 0.64760  0.95000  0.35020  Biso   1.000  C
  C59      1.0000 0.64760  0.45000  0.14980  Biso   1.000  C
  C60      1.0000 0.35240  0.55000  0.85020  Biso   1.000  C
  C61      1.0000 0.41200  0.12240  0.73630  Biso   1.000  C
  C62      1.0000 0.58800  0.87760  0.26370  Biso   1.000  C
  C63      1.0000 0.58800  0.37760  0.23630  Biso   1.000  C
  C64      1.0000 0.41200  0.62240  0.76370  Biso   1.000  C
  C65      1.0000 0.19200  0.11700  0.82660  Biso   1.000  C
  C66      1.0000 0.80800  0.88300  0.17340  Biso   1.000  C
  C67      1.0000 0.80800  0.38300  0.32660  Biso   1.000  C
  C68      1.0000 0.19200  0.61700  0.67340  Biso   1.000  C
  C69      1.0000 0.10850  0.14980  0.91580  Biso   1.000  C
  C70      1.0000 0.89150  0.85020  0.08420  Biso   1.000  C
  C71      1.0000 0.89150  0.35020  0.41580  Biso   1.000  C
  C72      1.0000 0.10850  0.64980  0.58420  Biso   1.000  C
  C73      1.0000 0.96610  0.11040  0.91830  Biso   1.000  C
  C74      1.0000 0.03390  0.88960  0.08170  Biso   1.000  C
  C75      1.0000 0.03390  0.38960  0.41830  Biso   1.000  C
  C76      1.0000 0.96610  0.61040  0.58170  Biso   1.000  C
  C77      1.0000 0.90150  0.03670  0.83100  Biso   1.000  C
  C78      1.0000 0.09850  0.96330  0.16900  Biso   1.000  C
  C79      1.0000 0.09850  0.46330  0.33100  Biso   1.000  C
  C80      1.0000 0.90150  0.53670  0.66900  Biso   1.000  C
  C81      1.0000 0.98200  0.00320  0.74370  Biso   1.000  C
  C82      1.0000 0.01800  0.99680  0.25630  Biso   1.000  C
  C83      1.0000 0.01800  0.49680  0.24370  Biso   1.000  C
  C84      1.0000 0.98200  0.50320  0.75630  Biso   1.000  C
  C85      1.0000 0.13060  0.04440  0.74110  Biso   1.000  C
  C86      1.0000 0.86940  0.95560  0.25890  Biso   1.000  C
  C87      1.0000 0.86940  0.45560  0.24110  Biso   1.000  C
  C88      1.0000 0.13060  0.54440  0.75890  Biso   1.000  C
  H1       1.0000 0.36070  0.31775  0.06565  Biso   1.000  H
  H2       1.0000 0.13659  0.31074  0.15763  Biso   1.000  H
  H3       1.0000 0.52186  0.15230  0.73598  Biso   1.000  H
  H4       1.0000 0.50226  0.25755  0.91061  Biso   1.000  H
  H5       1.0000 0.41470  0.02382  0.58162  Biso   1.000  H
  H6       1.0000 0.16592  0.95556  0.58490  Biso   1.000  H
  H7       1.0000 0.68012  0.12948  0.07806  Biso   1.000  H
  H8       1.0000 0.88609  0.24130  0.16222  Biso   1.000  H
  H9       1.0000 0.57364  0.00182  0.92626  Biso   1.000  H
  H10      1.0000 0.97961  0.90297  0.58846  Biso   1.000  H
  H11      1.0000 0.73202  0.83512  0.59394  Biso   1.000  H
  H12      1.0000 0.59054  0.89599  0.75219  Biso   1.000  H
  H13      1.0000 0.02039  0.09703  0.41154  Biso   1.000  H
  H14      1.0000 0.26798  0.16488  0.40606  Biso   1.000  H
  H15      1.0000 0.40946  0.10401  0.24781  Biso   1.000  H
  H16      1.0000 0.42636  0.99818  0.07374  Biso   1.000  H
  H17      1.0000 0.11391  0.75870  0.83778  Biso   1.000  H
  H18      1.0000 0.31988  0.87052  0.92194  Biso   1.000  H
  H19      1.0000 0.83408  0.04444  0.41510  Biso   1.000  H
  H20      1.0000 0.49774  0.74245  0.08939  Biso   1.000  H
  H21      1.0000 0.47814  0.84770  0.26402  Biso   1.000  H
  H22      1.0000 0.58530  0.97618  0.41838  Biso   1.000  H
  H23      1.0000 0.63930  0.68225  0.93435  Biso   1.000  H
  H24      1.0000 0.86341  0.68926  0.84237  Biso   1.000  H
  H25      1.0000 0.02039  0.59703  0.08846  Biso   1.000  H
  H26      1.0000 0.11391  0.25870  0.66222  Biso   1.000  H
  H27      1.0000 0.31988  0.37052  0.57806  Biso   1.000  H
  H28      1.0000 0.26798  0.66488  0.09394  Biso   1.000  H
  H29      1.0000 0.42636  0.49818  0.42626  Biso   1.000  H
  H30      1.0000 0.40946  0.60401  0.25219  Biso   1.000  H
  H31      1.0000 0.49774  0.24245  0.41061  Biso   1.000  H
  H32      1.0000 0.47814  0.34770  0.23598  Biso   1.000  H
  H33      1.0000 0.63930  0.18225  0.56565  Biso   1.000  H
  H34      1.0000 0.58530  0.47618  0.08162  Biso   1.000  H
  H35      1.0000 0.83408  0.54444  0.08490  Biso   1.000  H
  H36      1.0000 0.86341  0.18926  0.65763  Biso   1.000  H
  H37      1.0000 0.52186  0.65230  0.76402  Biso   1.000  H
  H38      1.0000 0.50226  0.75755  0.58939  Biso   1.000  H
  H39      1.0000 0.41470  0.52382  0.91838  Biso   1.000  H
  H40      1.0000 0.36070  0.81775  0.43435  Biso   1.000  H
  H41      1.0000 0.16592  0.45556  0.91510  Biso   1.000  H
  H42      1.0000 0.13659  0.81074  0.34237  Biso   1.000  H
  H43      1.0000 0.97961  0.40297  0.91154  Biso   1.000  H
  H44      1.0000 0.73202  0.33512  0.90606  Biso   1.000  H
  H45      1.0000 0.68012  0.62948  0.42194  Biso   1.000  H
  H46      1.0000 0.88609  0.74130  0.33778  Biso   1.000  H
  H47      1.0000 0.59054  0.39599  0.74781  Biso   1.000  H
  H48      1.0000 0.57364  0.50182  0.57374  Biso   1.000  H
