data_image0
_cell_length_a       8.936
_cell_length_b       11.1239
_cell_length_c       11.643
_cell_angle_alpha    99.4474
_cell_angle_beta     107.24
_cell_angle_gamma    110.838

_symmetry_space_group_name_H-M    "P 1"
_symmetry_int_tables_number       1

loop_
  _symmetry_equiv_pos_as_xyz
  'x, y, z'

loop_
  _atom_site_label
  _atom_site_occupancy
  _atom_site_fract_x
  _atom_site_fract_y
  _atom_site_fract_z
  _atom_site_thermal_displace_type
  _atom_site_B_iso_or_equiv
  _atom_site_type_symbol
  H1       1.0000 0.31444  0.42884  0.36885  Biso   1.000  H
  H2       1.0000 0.68556  0.57116  0.63115  Biso   1.000  H
  H3       1.0000 0.26621  0.41198  0.56346  Biso   1.000  H
  H4       1.0000 0.73379  0.58802  0.43654  Biso   1.000  H
  H5       1.0000 0.18089  0.19158  0.60936  Biso   1.000  H
  H6       1.0000 0.81911  0.80842  0.39064  Biso   1.000  H
  H7       1.0000 0.16411  0.99384  0.46838  Biso   1.000  H
  H8       1.0000 0.83589  0.00616  0.53162  Biso   1.000  H
  H9       1.0000 0.21777  0.78509  0.08166  Biso   1.000  H
  H10      1.0000 0.78223  0.21491  0.91834  Biso   1.000  H
  H11      1.0000 0.21584  0.67459  0.87890  Biso   1.000  H
  H12      1.0000 0.78416  0.32541  0.12110  Biso   1.000  H
  H13      1.0000 0.22602  0.68167  0.67017  Biso   1.000  H
  H14      1.0000 0.77398  0.31833  0.32983  Biso   1.000  H
  H15      1.0000 0.26249  0.88890  0.60710  Biso   1.000  H
  H16      1.0000 0.73751  0.11110  0.39290  Biso   1.000  H
  H17      1.0000 0.28757  0.09050  0.75105  Biso   1.000  H
  H18      1.0000 0.71243  0.90950  0.24895  Biso   1.000  H
  H19      1.0000 0.29553  0.20462  0.95551  Biso   1.000  H
  H20      1.0000 0.70447  0.79538  0.04449  Biso   1.000  H
  H21      1.0000 0.59012  0.40194  0.19753  Biso   1.000  H
  H22      1.0000 0.40988  0.59806  0.80247  Biso   1.000  H
  H23      1.0000 0.66083  0.62231  0.15797  Biso   1.000  H
  H24      1.0000 0.33917  0.37769  0.84203  Biso   1.000  H
  H25      1.0000 0.43610  0.70519  0.09653  Biso   1.000  H
  H26      1.0000 0.56390  0.29481  0.90347  Biso   1.000  H
  H27      1.0000 0.13775  0.56340  0.07365  Biso   1.000  H
  H28      1.0000 0.86225  0.43660  0.92635  Biso   1.000  H
  H29      1.0000 0.06723  0.34208  0.11161  Biso   1.000  H
  H30      1.0000 0.93277  0.65792  0.88839  Biso   1.000  H
  H31      1.0000 0.92053  0.76390  0.18890  Biso   1.000  H
  H32      1.0000 0.07947  0.23610  0.81110  Biso   1.000  H
  H33      1.0000 0.87392  0.55936  0.25951  Biso   1.000  H
  H34      1.0000 0.12608  0.44064  0.74049  Biso   1.000  H
  H35      1.0000 0.12162  0.53462  0.39827  Biso   1.000  H
  H36      1.0000 0.87838  0.46538  0.60173  Biso   1.000  H
  H37      1.0000 0.41953  0.71444  0.46597  Biso   1.000  H
  H38      1.0000 0.58047  0.28556  0.53403  Biso   1.000  H
  H39      1.0000 0.46523  0.91769  0.39681  Biso   1.000  H
  H40      1.0000 0.53477  0.08231  0.60319  Biso   1.000  H
  C1       1.0000 0.27930  0.33310  0.38970  Biso   1.000  C
  C2       1.0000 0.72070  0.66690  0.61030  Biso   1.000  C
  C3       1.0000 0.25300  0.32380  0.49720  Biso   1.000  C
  C4       1.0000 0.74700  0.67620  0.50280  Biso   1.000  C
  C5       1.0000 0.20750  0.19850  0.52470  Biso   1.000  C
  C6       1.0000 0.79250  0.80150  0.47530  Biso   1.000  C
  C7       1.0000 0.19840  0.08910  0.44660  Biso   1.000  C
  C8       1.0000 0.80160  0.91090  0.55340  Biso   1.000  C
  C9       1.0000 0.22790  0.09410  0.33280  Biso   1.000  C
  C10      1.0000 0.77210  0.90590  0.66720  Biso   1.000  C
  C11      1.0000 0.22290  0.98250  0.25300  Biso   1.000  C
  C12      1.0000 0.77710  0.01750  0.74700  Biso   1.000  C
  C13      1.0000 0.24220  0.98880  0.13790  Biso   1.000  C
  C14      1.0000 0.75780  0.01120  0.86210  Biso   1.000  C
  C15      1.0000 0.23500  0.87640  0.05420  Biso   1.000  C
  C16      1.0000 0.76500  0.12360  0.94580  Biso   1.000  C
  C17      1.0000 0.24450  0.87930  0.93640  Biso   1.000  C
  C18      1.0000 0.75550  0.12070  0.06360  Biso   1.000  C
  C19      1.0000 0.23140  0.76560  0.85050  Biso   1.000  C
  C20      1.0000 0.76860  0.23440  0.14950  Biso   1.000  C
  C21      1.0000 0.23720  0.76940  0.73600  Biso   1.000  C
  C22      1.0000 0.76280  0.23060  0.26400  Biso   1.000  C
  C23      1.0000 0.25770  0.88850  0.69940  Biso   1.000  C
  C24      1.0000 0.74230  0.11150  0.30060  Biso   1.000  C
  C25      1.0000 0.27120  0.99910  0.77880  Biso   1.000  C
  C26      1.0000 0.72880  0.00090  0.22120  Biso   1.000  C
  C27      1.0000 0.26440  0.99930  0.89970  Biso   1.000  C
  C28      1.0000 0.73560  0.00070  0.10030  Biso   1.000  C
  C29      1.0000 0.27810  0.11320  0.98290  Biso   1.000  C
  C30      1.0000 0.72190  0.88680  0.01710  Biso   1.000  C
  C31      1.0000 0.26900  0.11170  0.10310  Biso   1.000  C
  C32      1.0000 0.73100  0.88830  0.89690  Biso   1.000  C
  C33      1.0000 0.28420  0.22620  0.18740  Biso   1.000  C
  C34      1.0000 0.71580  0.77380  0.81260  Biso   1.000  C
  C35      1.0000 0.26400  0.21880  0.30140  Biso   1.000  C
  C36      1.0000 0.73600  0.78120  0.69860  Biso   1.000  C
  C37      1.0000 0.32410  0.35720  0.15730  Biso   1.000  C
  C38      1.0000 0.67590  0.64280  0.84270  Biso   1.000  C
  C39      1.0000 0.48980  0.43750  0.17020  Biso   1.000  C
  C40      1.0000 0.51020  0.56250  0.82980  Biso   1.000  C
  C41      1.0000 0.52930  0.56160  0.14860  Biso   1.000  C
  C42      1.0000 0.47070  0.43840  0.85140  Biso   1.000  C
  C43      1.0000 0.40370  0.60710  0.11290  Biso   1.000  C
  C44      1.0000 0.59630  0.39290  0.88710  Biso   1.000  C
  C45      1.0000 0.23910  0.52850  0.09930  Biso   1.000  C
  C46      1.0000 0.76090  0.47150  0.90070  Biso   1.000  C
  C47      1.0000 0.19850  0.40340  0.12110  Biso   1.000  C
  C48      1.0000 0.80150  0.59660  0.87890  Biso   1.000  C
  C49      1.0000 0.19520  0.85570  0.29030  Biso   1.000  C
  C50      1.0000 0.80480  0.14430  0.70970  Biso   1.000  C
  C51      1.0000 0.03010  0.75350  0.25140  Biso   1.000  C
  C52      1.0000 0.96990  0.24650  0.74860  Biso   1.000  C
  C53      1.0000 0.00470  0.63880  0.29100  Biso   1.000  C
  C54      1.0000 0.99530  0.36120  0.70900  Biso   1.000  C
  C55      1.0000 0.14330  0.62530  0.36860  Biso   1.000  C
  C56      1.0000 0.85670  0.37470  0.63140  Biso   1.000  C
  C57      1.0000 0.30810  0.72470  0.40610  Biso   1.000  C
  C58      1.0000 0.69190  0.27530  0.59390  Biso   1.000  C
  C59      1.0000 0.33400  0.83950  0.36700  Biso   1.000  C
  C60      1.0000 0.66600  0.16050  0.63300  Biso   1.000  C
